
---------- Begin Simulation Statistics ----------
simSeconds                                   0.008062                       # Number of seconds simulated (Second)
simTicks                                   8061819500                       # Number of ticks simulated (Tick)
finalTick                                  8231059500                       # Number of ticks from beginning of simulation (restored from checkpoints and never reset) (Tick)
simFreq                                  1000000000000                       # The number of ticks per simulated second ((Tick/Second))
hostSeconds                                     90.94                       # Real time elapsed on the host (Second)
hostTickRate                                 88649450                       # The number of ticks simulated per host second (ticks/s) ((Tick/Second))
hostMemory                                     920676                       # Number of bytes of host memory used (Byte)
simInsts                                     26966475                       # Number of instructions simulated (Count)
simOps                                       41119203                       # Number of ops (including micro ops) simulated (Count)
hostInstRate                                   296529                       # Simulator instruction rate (inst/s) ((Count/Second))
hostOpRate                                     452155                       # Simulator op (including micro ops) rate (op/s) ((Count/Second))
system.clk_domain.clock                           500                       # Clock period in ticks (Tick)
system.clk_domain.voltage_domain.voltage            1                       # Voltage in Volts (Volt)
system.cpu.numCycles                         16123639                       # Number of cpu cycles simulated (Cycle)
system.cpu.numWorkItemsStarted                      0                       # Number of work items this cpu started (Count)
system.cpu.numWorkItemsCompleted                    0                       # Number of work items this cpu completed (Count)
system.cpu.instsAdded                        44254095                       # Number of instructions added to the IQ (excludes non-spec) (Count)
system.cpu.nonSpecInstsAdded                       22                       # Number of non-speculative instructions added to the IQ (Count)
system.cpu.instsIssued                       43610055                       # Number of instructions issued (Count)
system.cpu.squashedInstsIssued                    941                       # Number of squashed instructions issued (Count)
system.cpu.squashedInstsExamined              3307652                       # Number of squashed instructions iterated over during squash; mainly for profiling (Count)
system.cpu.squashedOperandsExamined           4052637                       # Number of squashed operands that are examined and possibly removed from graph (Count)
system.cpu.squashedNonSpecRemoved                  12                       # Number of squashed non-spec instructions that were removed (Count)
system.cpu.numIssuedDist::samples            16096775                       # Number of insts issued each cycle (Count)
system.cpu.numIssuedDist::mean               2.709242                       # Number of insts issued each cycle (Count)
system.cpu.numIssuedDist::stdev              1.565511                       # Number of insts issued each cycle (Count)
system.cpu.numIssuedDist::underflows                0      0.00%      0.00% # Number of insts issued each cycle (Count)
system.cpu.numIssuedDist::0                   1333802      8.29%      8.29% # Number of insts issued each cycle (Count)
system.cpu.numIssuedDist::1                   2932115     18.22%     26.50% # Number of insts issued each cycle (Count)
system.cpu.numIssuedDist::2                   3380949     21.00%     47.51% # Number of insts issued each cycle (Count)
system.cpu.numIssuedDist::3                   2449225     15.22%     62.72% # Number of insts issued each cycle (Count)
system.cpu.numIssuedDist::4                   3435053     21.34%     84.06% # Number of insts issued each cycle (Count)
system.cpu.numIssuedDist::5                   2565631     15.94%    100.00% # Number of insts issued each cycle (Count)
system.cpu.numIssuedDist::overflows                 0      0.00%    100.00% # Number of insts issued each cycle (Count)
system.cpu.numIssuedDist::min_value                 0                       # Number of insts issued each cycle (Count)
system.cpu.numIssuedDist::max_value                 5                       # Number of insts issued each cycle (Count)
system.cpu.numIssuedDist::total              16096775                       # Number of insts issued each cycle (Count)
system.cpu.statFuBusy::No_OpClass                   0      0.00%      0.00% # attempts to use FU when none available (Count)
system.cpu.statFuBusy::IntAlu                       0      0.00%      0.00% # attempts to use FU when none available (Count)
system.cpu.statFuBusy::IntMult                      0      0.00%      0.00% # attempts to use FU when none available (Count)
system.cpu.statFuBusy::IntDiv                       0      0.00%      0.00% # attempts to use FU when none available (Count)
system.cpu.statFuBusy::FloatAdd                     0      0.00%      0.00% # attempts to use FU when none available (Count)
system.cpu.statFuBusy::FloatCmp                     0      0.00%      0.00% # attempts to use FU when none available (Count)
system.cpu.statFuBusy::FloatCvt                     0      0.00%      0.00% # attempts to use FU when none available (Count)
system.cpu.statFuBusy::FloatMult                    0      0.00%      0.00% # attempts to use FU when none available (Count)
system.cpu.statFuBusy::FloatMultAcc                 0      0.00%      0.00% # attempts to use FU when none available (Count)
system.cpu.statFuBusy::FloatDiv                     0      0.00%      0.00% # attempts to use FU when none available (Count)
system.cpu.statFuBusy::FloatMisc                    0      0.00%      0.00% # attempts to use FU when none available (Count)
system.cpu.statFuBusy::FloatSqrt                    0      0.00%      0.00% # attempts to use FU when none available (Count)
system.cpu.statFuBusy::SimdAdd                      0      0.00%      0.00% # attempts to use FU when none available (Count)
system.cpu.statFuBusy::SimdAddAcc                   0      0.00%      0.00% # attempts to use FU when none available (Count)
system.cpu.statFuBusy::SimdAlu                      0      0.00%      0.00% # attempts to use FU when none available (Count)
system.cpu.statFuBusy::SimdCmp                      0      0.00%      0.00% # attempts to use FU when none available (Count)
system.cpu.statFuBusy::SimdCvt                      0      0.00%      0.00% # attempts to use FU when none available (Count)
system.cpu.statFuBusy::SimdMisc                     0      0.00%      0.00% # attempts to use FU when none available (Count)
system.cpu.statFuBusy::SimdMult                     0      0.00%      0.00% # attempts to use FU when none available (Count)
system.cpu.statFuBusy::SimdMultAcc                  0      0.00%      0.00% # attempts to use FU when none available (Count)
system.cpu.statFuBusy::SimdShift                    0      0.00%      0.00% # attempts to use FU when none available (Count)
system.cpu.statFuBusy::SimdShiftAcc                 0      0.00%      0.00% # attempts to use FU when none available (Count)
system.cpu.statFuBusy::SimdDiv                      0      0.00%      0.00% # attempts to use FU when none available (Count)
system.cpu.statFuBusy::SimdSqrt                     0      0.00%      0.00% # attempts to use FU when none available (Count)
system.cpu.statFuBusy::SimdFloatAdd                 0      0.00%      0.00% # attempts to use FU when none available (Count)
system.cpu.statFuBusy::SimdFloatAlu                 0      0.00%      0.00% # attempts to use FU when none available (Count)
system.cpu.statFuBusy::SimdFloatCmp                 0      0.00%      0.00% # attempts to use FU when none available (Count)
system.cpu.statFuBusy::SimdFloatCvt                 0      0.00%      0.00% # attempts to use FU when none available (Count)
system.cpu.statFuBusy::SimdFloatDiv                 0      0.00%      0.00% # attempts to use FU when none available (Count)
system.cpu.statFuBusy::SimdFloatMisc                0      0.00%      0.00% # attempts to use FU when none available (Count)
system.cpu.statFuBusy::SimdFloatMult                0      0.00%      0.00% # attempts to use FU when none available (Count)
system.cpu.statFuBusy::SimdFloatMultAcc             0      0.00%      0.00% # attempts to use FU when none available (Count)
system.cpu.statFuBusy::SimdFloatSqrt                0      0.00%      0.00% # attempts to use FU when none available (Count)
system.cpu.statFuBusy::SimdReduceAdd                0      0.00%      0.00% # attempts to use FU when none available (Count)
system.cpu.statFuBusy::SimdReduceAlu                0      0.00%      0.00% # attempts to use FU when none available (Count)
system.cpu.statFuBusy::SimdReduceCmp                0      0.00%      0.00% # attempts to use FU when none available (Count)
system.cpu.statFuBusy::SimdFloatReduceAdd            0      0.00%      0.00% # attempts to use FU when none available (Count)
system.cpu.statFuBusy::SimdFloatReduceCmp            0      0.00%      0.00% # attempts to use FU when none available (Count)
system.cpu.statFuBusy::SimdAes                      0      0.00%      0.00% # attempts to use FU when none available (Count)
system.cpu.statFuBusy::SimdAesMix                   0      0.00%      0.00% # attempts to use FU when none available (Count)
system.cpu.statFuBusy::SimdSha1Hash                 0      0.00%      0.00% # attempts to use FU when none available (Count)
system.cpu.statFuBusy::SimdSha1Hash2                0      0.00%      0.00% # attempts to use FU when none available (Count)
system.cpu.statFuBusy::SimdSha256Hash               0      0.00%      0.00% # attempts to use FU when none available (Count)
system.cpu.statFuBusy::SimdSha256Hash2              0      0.00%      0.00% # attempts to use FU when none available (Count)
system.cpu.statFuBusy::SimdShaSigma2                0      0.00%      0.00% # attempts to use FU when none available (Count)
system.cpu.statFuBusy::SimdShaSigma3                0      0.00%      0.00% # attempts to use FU when none available (Count)
system.cpu.statFuBusy::SimdPredAlu                  0      0.00%      0.00% # attempts to use FU when none available (Count)
system.cpu.statFuBusy::MemRead                     14     42.42%     42.42% # attempts to use FU when none available (Count)
system.cpu.statFuBusy::MemWrite                    14     42.42%     84.85% # attempts to use FU when none available (Count)
system.cpu.statFuBusy::FloatMemRead                 3      9.09%     93.94% # attempts to use FU when none available (Count)
system.cpu.statFuBusy::FloatMemWrite                2      6.06%    100.00% # attempts to use FU when none available (Count)
system.cpu.statFuBusy::IprAccess                    0      0.00%    100.00% # attempts to use FU when none available (Count)
system.cpu.statFuBusy::InstPrefetch                 0      0.00%    100.00% # attempts to use FU when none available (Count)
system.cpu.statIssuedInstType_0::No_OpClass          810      0.00%      0.00% # Number of instructions issued per FU type, per thread (Count)
system.cpu.statIssuedInstType_0::IntAlu      25908135     59.41%     59.41% # Number of instructions issued per FU type, per thread (Count)
system.cpu.statIssuedInstType_0::IntMult        15127      0.03%     59.45% # Number of instructions issued per FU type, per thread (Count)
system.cpu.statIssuedInstType_0::IntDiv            95      0.00%     59.45% # Number of instructions issued per FU type, per thread (Count)
system.cpu.statIssuedInstType_0::FloatAdd           28      0.00%     59.45% # Number of instructions issued per FU type, per thread (Count)
system.cpu.statIssuedInstType_0::FloatCmp            0      0.00%     59.45% # Number of instructions issued per FU type, per thread (Count)
system.cpu.statIssuedInstType_0::FloatCvt           16      0.00%     59.45% # Number of instructions issued per FU type, per thread (Count)
system.cpu.statIssuedInstType_0::FloatMult            0      0.00%     59.45% # Number of instructions issued per FU type, per thread (Count)
system.cpu.statIssuedInstType_0::FloatMultAcc            0      0.00%     59.45% # Number of instructions issued per FU type, per thread (Count)
system.cpu.statIssuedInstType_0::FloatDiv            0      0.00%     59.45% # Number of instructions issued per FU type, per thread (Count)
system.cpu.statIssuedInstType_0::FloatMisc            0      0.00%     59.45% # Number of instructions issued per FU type, per thread (Count)
system.cpu.statIssuedInstType_0::FloatSqrt            0      0.00%     59.45% # Number of instructions issued per FU type, per thread (Count)
system.cpu.statIssuedInstType_0::SimdAdd            4      0.00%     59.45% # Number of instructions issued per FU type, per thread (Count)
system.cpu.statIssuedInstType_0::SimdAddAcc            0      0.00%     59.45% # Number of instructions issued per FU type, per thread (Count)
system.cpu.statIssuedInstType_0::SimdAlu           86      0.00%     59.45% # Number of instructions issued per FU type, per thread (Count)
system.cpu.statIssuedInstType_0::SimdCmp            0      0.00%     59.45% # Number of instructions issued per FU type, per thread (Count)
system.cpu.statIssuedInstType_0::SimdCvt           88      0.00%     59.45% # Number of instructions issued per FU type, per thread (Count)
system.cpu.statIssuedInstType_0::SimdMisc          184      0.00%     59.45% # Number of instructions issued per FU type, per thread (Count)
system.cpu.statIssuedInstType_0::SimdMult            0      0.00%     59.45% # Number of instructions issued per FU type, per thread (Count)
system.cpu.statIssuedInstType_0::SimdMultAcc            0      0.00%     59.45% # Number of instructions issued per FU type, per thread (Count)
system.cpu.statIssuedInstType_0::SimdShift            0      0.00%     59.45% # Number of instructions issued per FU type, per thread (Count)
system.cpu.statIssuedInstType_0::SimdShiftAcc            0      0.00%     59.45% # Number of instructions issued per FU type, per thread (Count)
system.cpu.statIssuedInstType_0::SimdDiv            0      0.00%     59.45% # Number of instructions issued per FU type, per thread (Count)
system.cpu.statIssuedInstType_0::SimdSqrt            0      0.00%     59.45% # Number of instructions issued per FU type, per thread (Count)
system.cpu.statIssuedInstType_0::SimdFloatAdd            0      0.00%     59.45% # Number of instructions issued per FU type, per thread (Count)
system.cpu.statIssuedInstType_0::SimdFloatAlu            0      0.00%     59.45% # Number of instructions issued per FU type, per thread (Count)
system.cpu.statIssuedInstType_0::SimdFloatCmp            0      0.00%     59.45% # Number of instructions issued per FU type, per thread (Count)
system.cpu.statIssuedInstType_0::SimdFloatCvt            0      0.00%     59.45% # Number of instructions issued per FU type, per thread (Count)
system.cpu.statIssuedInstType_0::SimdFloatDiv            0      0.00%     59.45% # Number of instructions issued per FU type, per thread (Count)
system.cpu.statIssuedInstType_0::SimdFloatMisc            0      0.00%     59.45% # Number of instructions issued per FU type, per thread (Count)
system.cpu.statIssuedInstType_0::SimdFloatMult            0      0.00%     59.45% # Number of instructions issued per FU type, per thread (Count)
system.cpu.statIssuedInstType_0::SimdFloatMultAcc            0      0.00%     59.45% # Number of instructions issued per FU type, per thread (Count)
system.cpu.statIssuedInstType_0::SimdFloatSqrt            0      0.00%     59.45% # Number of instructions issued per FU type, per thread (Count)
system.cpu.statIssuedInstType_0::SimdReduceAdd            0      0.00%     59.45% # Number of instructions issued per FU type, per thread (Count)
system.cpu.statIssuedInstType_0::SimdReduceAlu            0      0.00%     59.45% # Number of instructions issued per FU type, per thread (Count)
system.cpu.statIssuedInstType_0::SimdReduceCmp            0      0.00%     59.45% # Number of instructions issued per FU type, per thread (Count)
system.cpu.statIssuedInstType_0::SimdFloatReduceAdd            0      0.00%     59.45% # Number of instructions issued per FU type, per thread (Count)
system.cpu.statIssuedInstType_0::SimdFloatReduceCmp            0      0.00%     59.45% # Number of instructions issued per FU type, per thread (Count)
system.cpu.statIssuedInstType_0::SimdAes            0      0.00%     59.45% # Number of instructions issued per FU type, per thread (Count)
system.cpu.statIssuedInstType_0::SimdAesMix            0      0.00%     59.45% # Number of instructions issued per FU type, per thread (Count)
system.cpu.statIssuedInstType_0::SimdSha1Hash            0      0.00%     59.45% # Number of instructions issued per FU type, per thread (Count)
system.cpu.statIssuedInstType_0::SimdSha1Hash2            0      0.00%     59.45% # Number of instructions issued per FU type, per thread (Count)
system.cpu.statIssuedInstType_0::SimdSha256Hash            0      0.00%     59.45% # Number of instructions issued per FU type, per thread (Count)
system.cpu.statIssuedInstType_0::SimdSha256Hash2            0      0.00%     59.45% # Number of instructions issued per FU type, per thread (Count)
system.cpu.statIssuedInstType_0::SimdShaSigma2            0      0.00%     59.45% # Number of instructions issued per FU type, per thread (Count)
system.cpu.statIssuedInstType_0::SimdShaSigma3            0      0.00%     59.45% # Number of instructions issued per FU type, per thread (Count)
system.cpu.statIssuedInstType_0::SimdPredAlu            0      0.00%     59.45% # Number of instructions issued per FU type, per thread (Count)
system.cpu.statIssuedInstType_0::MemRead     14277996     32.74%     92.19% # Number of instructions issued per FU type, per thread (Count)
system.cpu.statIssuedInstType_0::MemWrite      3407294      7.81%    100.00% # Number of instructions issued per FU type, per thread (Count)
system.cpu.statIssuedInstType_0::FloatMemRead          114      0.00%    100.00% # Number of instructions issued per FU type, per thread (Count)
system.cpu.statIssuedInstType_0::FloatMemWrite           78      0.00%    100.00% # Number of instructions issued per FU type, per thread (Count)
system.cpu.statIssuedInstType_0::IprAccess            0      0.00%    100.00% # Number of instructions issued per FU type, per thread (Count)
system.cpu.statIssuedInstType_0::InstPrefetch            0      0.00%    100.00% # Number of instructions issued per FU type, per thread (Count)
system.cpu.statIssuedInstType_0::total       43610055                       # Number of instructions issued per FU type, per thread (Count)
system.cpu.issueRate                         2.704728                       # Inst issue rate ((Count/Cycle))
system.cpu.fuBusy                                  33                       # FU busy when requested (Count)
system.cpu.fuBusyRate                        0.000001                       # FU busy rate (busy events/executed inst) ((Count/Count))
system.cpu.intInstQueueReads                103316539                       # Number of integer instruction queue reads (Count)
system.cpu.intInstQueueWrites                47561203                       # Number of integer instruction queue writes (Count)
system.cpu.intInstQueueWakeupAccesses        43238611                       # Number of integer instruction queue wakeup accesses (Count)
system.cpu.fpInstQueueReads                      1321                       # Number of floating instruction queue reads (Count)
system.cpu.fpInstQueueWrites                      744                       # Number of floating instruction queue writes (Count)
system.cpu.fpInstQueueWakeupAccesses              642                       # Number of floating instruction queue wakeup accesses (Count)
system.cpu.vecInstQueueReads                        0                       # Number of vector instruction queue reads (Count)
system.cpu.vecInstQueueWrites                       0                       # Number of vector instruction queue writes (Count)
system.cpu.vecInstQueueWakeupAccesses               0                       # Number of vector instruction queue wakeup accesses (Count)
system.cpu.intAluAccesses                    43608615                       # Number of integer alu accesses (Count)
system.cpu.fpAluAccesses                          663                       # Number of floating point alu accesses (Count)
system.cpu.vecAluAccesses                           0                       # Number of vector alu accesses (Count)
system.cpu.numInsts                          43406047                       # Number of executed instructions (Count)
system.cpu.numLoadInsts                      14196665                       # Number of load instructions executed (Count)
system.cpu.numSquashedInsts                    204009                       # Number of squashed instructions skipped in execute (Count)
system.cpu.numSwp                                   0                       # Number of swp insts executed (Count)
system.cpu.numNop                                   0                       # Number of nop insts executed (Count)
system.cpu.numRefs                           17600790                       # Number of memory reference insts executed (Count)
system.cpu.numBranches                        2622792                       # Number of branches executed (Count)
system.cpu.numStoreInsts                      3404125                       # Number of stores executed (Count)
system.cpu.numRate                           2.692075                       # Inst execution rate ((Count/Cycle))
system.cpu.timesIdled                             673                       # Number of times that the entire CPU went into an idle state and unscheduled itself (Count)
system.cpu.idleCycles                           26864                       # Total number of cycles that the CPU has spent unscheduled due to idling (Cycle)
system.cpu.committedInsts                    26871651                       # Number of Instructions Simulated (Count)
system.cpu.committedOps                      40946462                       # Number of Ops (including micro ops) Simulated (Count)
system.cpu.cpi                               0.600024                       # CPI: Cycles Per Instruction ((Cycle/Count))
system.cpu.totalCpi                          0.600024                       # CPI: Total CPI of All Threads ((Cycle/Count))
system.cpu.ipc                               1.666600                       # IPC: Instructions Per Cycle ((Count/Cycle))
system.cpu.totalIpc                          1.666600                       # IPC: Total IPC of All Threads ((Count/Cycle))
system.cpu.intRegfileReads                   45354196                       # Number of integer regfile reads (Count)
system.cpu.intRegfileWrites                  34723093                       # Number of integer regfile writes (Count)
system.cpu.fpRegfileReads                        1002                       # Number of floating regfile reads (Count)
system.cpu.fpRegfileWrites                        509                       # Number of floating regfile writes (Count)
system.cpu.ccRegfileReads                    13033814                       # number of cc regfile reads (Count)
system.cpu.ccRegfileWrites                   13390486                       # number of cc regfile writes (Count)
system.cpu.miscRegfileReads                  24332788                       # number of misc regfile reads (Count)
system.cpu.miscRegfileWrites                        9                       # number of misc regfile writes (Count)
system.cpu.MemDepUnit__0.insertedLoads       14414500                       # Number of loads inserted to the mem dependence unit. (Count)
system.cpu.MemDepUnit__0.insertedStores       3524764                       # Number of stores inserted to the mem dependence unit. (Count)
system.cpu.MemDepUnit__0.conflictingLoads      2853713                       # Number of conflicting loads. (Count)
system.cpu.MemDepUnit__0.conflictingStores           11                       # Number of conflicting stores. (Count)
system.cpu.MemDepUnit__1.insertedLoads              0                       # Number of loads inserted to the mem dependence unit. (Count)
system.cpu.MemDepUnit__1.insertedStores             0                       # Number of stores inserted to the mem dependence unit. (Count)
system.cpu.MemDepUnit__1.conflictingLoads            0                       # Number of conflicting loads. (Count)
system.cpu.MemDepUnit__1.conflictingStores            0                       # Number of conflicting stores. (Count)
system.cpu.MemDepUnit__2.insertedLoads              0                       # Number of loads inserted to the mem dependence unit. (Count)
system.cpu.MemDepUnit__2.insertedStores             0                       # Number of stores inserted to the mem dependence unit. (Count)
system.cpu.MemDepUnit__2.conflictingLoads            0                       # Number of conflicting loads. (Count)
system.cpu.MemDepUnit__2.conflictingStores            0                       # Number of conflicting stores. (Count)
system.cpu.MemDepUnit__3.insertedLoads              0                       # Number of loads inserted to the mem dependence unit. (Count)
system.cpu.MemDepUnit__3.insertedStores             0                       # Number of stores inserted to the mem dependence unit. (Count)
system.cpu.MemDepUnit__3.conflictingLoads            0                       # Number of conflicting loads. (Count)
system.cpu.MemDepUnit__3.conflictingStores            0                       # Number of conflicting stores. (Count)
system.cpu.branchPred.lookups                 2868499                       # Number of BP lookups (Count)
system.cpu.branchPred.condPredicted           2843669                       # Number of conditional branches predicted (Count)
system.cpu.branchPred.condIncorrect            125119                       # Number of conditional branches incorrect (Count)
system.cpu.branchPred.BTBLookups              2128481                       # Number of BTB lookups (Count)
system.cpu.branchPred.BTBHits                 2128024                       # Number of BTB hits (Count)
system.cpu.branchPred.BTBHitRatio            0.999785                       # BTB Hit Ratio (Ratio)
system.cpu.branchPred.RASUsed                    5473                       # Number of times the RAS was used to get a target. (Count)
system.cpu.branchPred.RASIncorrect                  3                       # Number of incorrect RAS predictions. (Count)
system.cpu.branchPred.indirectLookups             362                       # Number of indirect predictor lookups. (Count)
system.cpu.branchPred.indirectHits                 98                       # Number of indirect target hits. (Count)
system.cpu.branchPred.indirectMisses              264                       # Number of indirect misses. (Count)
system.cpu.branchPred.indirectMispredicted           55                       # Number of mispredicted indirect branches. (Count)
system.cpu.commit.commitSquashedInsts         3307173                       # The number of squashed insts skipped by commit (Count)
system.cpu.commit.commitNonSpecStalls              10                       # The number of times commit has been forced to stall to communicate backwards (Count)
system.cpu.commit.branchMispredicts            125189                       # The number of times a branch was mispredicted (Count)
system.cpu.commit.numCommittedDist::samples     15651120                       # Number of insts commited each cycle (Count)
system.cpu.commit.numCommittedDist::mean     2.616200                       # Number of insts commited each cycle (Count)
system.cpu.commit.numCommittedDist::stdev     2.104209                       # Number of insts commited each cycle (Count)
system.cpu.commit.numCommittedDist::underflows            0      0.00%      0.00% # Number of insts commited each cycle (Count)
system.cpu.commit.numCommittedDist::0         4399892     28.11%     28.11% # Number of insts commited each cycle (Count)
system.cpu.commit.numCommittedDist::1         2280846     14.57%     42.69% # Number of insts commited each cycle (Count)
system.cpu.commit.numCommittedDist::2           35725      0.23%     42.91% # Number of insts commited each cycle (Count)
system.cpu.commit.numCommittedDist::3         2672214     17.07%     59.99% # Number of insts commited each cycle (Count)
system.cpu.commit.numCommittedDist::4          734691      4.69%     64.68% # Number of insts commited each cycle (Count)
system.cpu.commit.numCommittedDist::5         5527752     35.32%    100.00% # Number of insts commited each cycle (Count)
system.cpu.commit.numCommittedDist::overflows            0      0.00%    100.00% # Number of insts commited each cycle (Count)
system.cpu.commit.numCommittedDist::min_value            0                       # Number of insts commited each cycle (Count)
system.cpu.commit.numCommittedDist::max_value            5                       # Number of insts commited each cycle (Count)
system.cpu.commit.numCommittedDist::total     15651120                       # Number of insts commited each cycle (Count)
system.cpu.commit.instsCommitted             26871651                       # Number of instructions committed (Count)
system.cpu.commit.opsCommitted               40946462                       # Number of ops (including micro ops) committed (Count)
system.cpu.commit.memRefs                    16555533                       # Number of memory references committed (Count)
system.cpu.commit.loads                      13339506                       # Number of loads committed (Count)
system.cpu.commit.amos                              0                       # Number of atomic instructions committed (Count)
system.cpu.commit.membars                           0                       # Number of memory barriers committed (Count)
system.cpu.commit.branches                    2557251                       # Number of branches committed (Count)
system.cpu.commit.vectorInstructions                0                       # Number of committed Vector instructions. (Count)
system.cpu.commit.floating                        616                       # Number of committed floating point instructions. (Count)
system.cpu.commit.integer                    40945640                       # Number of committed integer instructions. (Count)
system.cpu.commit.functionCalls                  5222                       # Number of function calls committed. (Count)
system.cpu.commit.committedInstType_0::No_OpClass          296      0.00%      0.00% # Class of committed instruction (Count)
system.cpu.commit.committedInstType_0::IntAlu     24375094     59.53%     59.53% # Class of committed instruction (Count)
system.cpu.commit.committedInstType_0::IntMult        15050      0.04%     59.57% # Class of committed instruction (Count)
system.cpu.commit.committedInstType_0::IntDiv           85      0.00%     59.57% # Class of committed instruction (Count)
system.cpu.commit.committedInstType_0::FloatAdd           28      0.00%     59.57% # Class of committed instruction (Count)
system.cpu.commit.committedInstType_0::FloatCmp            0      0.00%     59.57% # Class of committed instruction (Count)
system.cpu.commit.committedInstType_0::FloatCvt           16      0.00%     59.57% # Class of committed instruction (Count)
system.cpu.commit.committedInstType_0::FloatMult            0      0.00%     59.57% # Class of committed instruction (Count)
system.cpu.commit.committedInstType_0::FloatMultAcc            0      0.00%     59.57% # Class of committed instruction (Count)
system.cpu.commit.committedInstType_0::FloatDiv            0      0.00%     59.57% # Class of committed instruction (Count)
system.cpu.commit.committedInstType_0::FloatMisc            0      0.00%     59.57% # Class of committed instruction (Count)
system.cpu.commit.committedInstType_0::FloatSqrt            0      0.00%     59.57% # Class of committed instruction (Count)
system.cpu.commit.committedInstType_0::SimdAdd            4      0.00%     59.57% # Class of committed instruction (Count)
system.cpu.commit.committedInstType_0::SimdAddAcc            0      0.00%     59.57% # Class of committed instruction (Count)
system.cpu.commit.committedInstType_0::SimdAlu           84      0.00%     59.57% # Class of committed instruction (Count)
system.cpu.commit.committedInstType_0::SimdCmp            0      0.00%     59.57% # Class of committed instruction (Count)
system.cpu.commit.committedInstType_0::SimdCvt           88      0.00%     59.57% # Class of committed instruction (Count)
system.cpu.commit.committedInstType_0::SimdMisc          184      0.00%     59.57% # Class of committed instruction (Count)
system.cpu.commit.committedInstType_0::SimdMult            0      0.00%     59.57% # Class of committed instruction (Count)
system.cpu.commit.committedInstType_0::SimdMultAcc            0      0.00%     59.57% # Class of committed instruction (Count)
system.cpu.commit.committedInstType_0::SimdShift            0      0.00%     59.57% # Class of committed instruction (Count)
system.cpu.commit.committedInstType_0::SimdShiftAcc            0      0.00%     59.57% # Class of committed instruction (Count)
system.cpu.commit.committedInstType_0::SimdDiv            0      0.00%     59.57% # Class of committed instruction (Count)
system.cpu.commit.committedInstType_0::SimdSqrt            0      0.00%     59.57% # Class of committed instruction (Count)
system.cpu.commit.committedInstType_0::SimdFloatAdd            0      0.00%     59.57% # Class of committed instruction (Count)
system.cpu.commit.committedInstType_0::SimdFloatAlu            0      0.00%     59.57% # Class of committed instruction (Count)
system.cpu.commit.committedInstType_0::SimdFloatCmp            0      0.00%     59.57% # Class of committed instruction (Count)
system.cpu.commit.committedInstType_0::SimdFloatCvt            0      0.00%     59.57% # Class of committed instruction (Count)
system.cpu.commit.committedInstType_0::SimdFloatDiv            0      0.00%     59.57% # Class of committed instruction (Count)
system.cpu.commit.committedInstType_0::SimdFloatMisc            0      0.00%     59.57% # Class of committed instruction (Count)
system.cpu.commit.committedInstType_0::SimdFloatMult            0      0.00%     59.57% # Class of committed instruction (Count)
system.cpu.commit.committedInstType_0::SimdFloatMultAcc            0      0.00%     59.57% # Class of committed instruction (Count)
system.cpu.commit.committedInstType_0::SimdFloatSqrt            0      0.00%     59.57% # Class of committed instruction (Count)
system.cpu.commit.committedInstType_0::SimdReduceAdd            0      0.00%     59.57% # Class of committed instruction (Count)
system.cpu.commit.committedInstType_0::SimdReduceAlu            0      0.00%     59.57% # Class of committed instruction (Count)
system.cpu.commit.committedInstType_0::SimdReduceCmp            0      0.00%     59.57% # Class of committed instruction (Count)
system.cpu.commit.committedInstType_0::SimdFloatReduceAdd            0      0.00%     59.57% # Class of committed instruction (Count)
system.cpu.commit.committedInstType_0::SimdFloatReduceCmp            0      0.00%     59.57% # Class of committed instruction (Count)
system.cpu.commit.committedInstType_0::SimdAes            0      0.00%     59.57% # Class of committed instruction (Count)
system.cpu.commit.committedInstType_0::SimdAesMix            0      0.00%     59.57% # Class of committed instruction (Count)
system.cpu.commit.committedInstType_0::SimdSha1Hash            0      0.00%     59.57% # Class of committed instruction (Count)
system.cpu.commit.committedInstType_0::SimdSha1Hash2            0      0.00%     59.57% # Class of committed instruction (Count)
system.cpu.commit.committedInstType_0::SimdSha256Hash            0      0.00%     59.57% # Class of committed instruction (Count)
system.cpu.commit.committedInstType_0::SimdSha256Hash2            0      0.00%     59.57% # Class of committed instruction (Count)
system.cpu.commit.committedInstType_0::SimdShaSigma2            0      0.00%     59.57% # Class of committed instruction (Count)
system.cpu.commit.committedInstType_0::SimdShaSigma3            0      0.00%     59.57% # Class of committed instruction (Count)
system.cpu.commit.committedInstType_0::SimdPredAlu            0      0.00%     59.57% # Class of committed instruction (Count)
system.cpu.commit.committedInstType_0::MemRead     13339406     32.58%     92.15% # Class of committed instruction (Count)
system.cpu.commit.committedInstType_0::MemWrite      3215975      7.85%    100.00% # Class of committed instruction (Count)
system.cpu.commit.committedInstType_0::FloatMemRead          100      0.00%    100.00% # Class of committed instruction (Count)
system.cpu.commit.committedInstType_0::FloatMemWrite           52      0.00%    100.00% # Class of committed instruction (Count)
system.cpu.commit.committedInstType_0::IprAccess            0      0.00%    100.00% # Class of committed instruction (Count)
system.cpu.commit.committedInstType_0::InstPrefetch            0      0.00%    100.00% # Class of committed instruction (Count)
system.cpu.commit.committedInstType_0::total     40946462                       # Class of committed instruction (Count)
system.cpu.commit.commitEligibleSamples       5527752                       # number cycles where commit BW limit reached (Cycle)
system.cpu.dcache.demandHits::cpu.data        8967885                       # number of demand (read+write) hits (Count)
system.cpu.dcache.demandHits::total           8967885                       # number of demand (read+write) hits (Count)
system.cpu.dcache.overallHits::cpu.data       8967885                       # number of overall hits (Count)
system.cpu.dcache.overallHits::total          8967885                       # number of overall hits (Count)
system.cpu.dcache.demandMisses::cpu.data         6224                       # number of demand (read+write) misses (Count)
system.cpu.dcache.demandMisses::total            6224                       # number of demand (read+write) misses (Count)
system.cpu.dcache.overallMisses::cpu.data         6224                       # number of overall misses (Count)
system.cpu.dcache.overallMisses::total           6224                       # number of overall misses (Count)
system.cpu.dcache.demandMissLatency::cpu.data    372226499                       # number of demand (read+write) miss ticks (Tick)
system.cpu.dcache.demandMissLatency::total    372226499                       # number of demand (read+write) miss ticks (Tick)
system.cpu.dcache.overallMissLatency::cpu.data    372226499                       # number of overall miss ticks (Tick)
system.cpu.dcache.overallMissLatency::total    372226499                       # number of overall miss ticks (Tick)
system.cpu.dcache.demandAccesses::cpu.data      8974109                       # number of demand (read+write) accesses (Count)
system.cpu.dcache.demandAccesses::total       8974109                       # number of demand (read+write) accesses (Count)
system.cpu.dcache.overallAccesses::cpu.data      8974109                       # number of overall (read+write) accesses (Count)
system.cpu.dcache.overallAccesses::total      8974109                       # number of overall (read+write) accesses (Count)
system.cpu.dcache.demandMissRate::cpu.data     0.000694                       # miss rate for demand accesses (Ratio)
system.cpu.dcache.demandMissRate::total      0.000694                       # miss rate for demand accesses (Ratio)
system.cpu.dcache.overallMissRate::cpu.data     0.000694                       # miss rate for overall accesses (Ratio)
system.cpu.dcache.overallMissRate::total     0.000694                       # miss rate for overall accesses (Ratio)
system.cpu.dcache.demandAvgMissLatency::cpu.data 59805.028760                       # average overall miss latency in ticks ((Tick/Count))
system.cpu.dcache.demandAvgMissLatency::total 59805.028760                       # average overall miss latency in ticks ((Tick/Count))
system.cpu.dcache.overallAvgMissLatency::cpu.data 59805.028760                       # average overall miss latency ((Tick/Count))
system.cpu.dcache.overallAvgMissLatency::total 59805.028760                       # average overall miss latency ((Tick/Count))
system.cpu.dcache.blockedCycles::no_mshrs          293                       # number of cycles access was blocked (Cycle)
system.cpu.dcache.blockedCycles::no_targets            0                       # number of cycles access was blocked (Cycle)
system.cpu.dcache.blockedCauses::no_mshrs           13                       # number of times access was blocked (Count)
system.cpu.dcache.blockedCauses::no_targets            0                       # number of times access was blocked (Count)
system.cpu.dcache.avgBlocked::no_mshrs      22.538462                       # average number of cycles each access was blocked ((Cycle/Count))
system.cpu.dcache.avgBlocked::no_targets          nan                       # average number of cycles each access was blocked ((Cycle/Count))
system.cpu.dcache.writebacks::writebacks          421                       # number of writebacks (Count)
system.cpu.dcache.writebacks::total               421                       # number of writebacks (Count)
system.cpu.dcache.demandMshrHits::cpu.data         4370                       # number of demand (read+write) MSHR hits (Count)
system.cpu.dcache.demandMshrHits::total          4370                       # number of demand (read+write) MSHR hits (Count)
system.cpu.dcache.overallMshrHits::cpu.data         4370                       # number of overall MSHR hits (Count)
system.cpu.dcache.overallMshrHits::total         4370                       # number of overall MSHR hits (Count)
system.cpu.dcache.demandMshrMisses::cpu.data         1854                       # number of demand (read+write) MSHR misses (Count)
system.cpu.dcache.demandMshrMisses::total         1854                       # number of demand (read+write) MSHR misses (Count)
system.cpu.dcache.overallMshrMisses::cpu.data         1854                       # number of overall MSHR misses (Count)
system.cpu.dcache.overallMshrMisses::total         1854                       # number of overall MSHR misses (Count)
system.cpu.dcache.demandMshrMissLatency::cpu.data    103109999                       # number of demand (read+write) MSHR miss ticks (Tick)
system.cpu.dcache.demandMshrMissLatency::total    103109999                       # number of demand (read+write) MSHR miss ticks (Tick)
system.cpu.dcache.overallMshrMissLatency::cpu.data    103109999                       # number of overall MSHR miss ticks (Tick)
system.cpu.dcache.overallMshrMissLatency::total    103109999                       # number of overall MSHR miss ticks (Tick)
system.cpu.dcache.demandMshrMissRate::cpu.data     0.000207                       # mshr miss ratio for demand accesses (Ratio)
system.cpu.dcache.demandMshrMissRate::total     0.000207                       # mshr miss ratio for demand accesses (Ratio)
system.cpu.dcache.overallMshrMissRate::cpu.data     0.000207                       # mshr miss ratio for overall accesses (Ratio)
system.cpu.dcache.overallMshrMissRate::total     0.000207                       # mshr miss ratio for overall accesses (Ratio)
system.cpu.dcache.demandAvgMshrMissLatency::cpu.data 55614.886192                       # average overall mshr miss latency ((Tick/Count))
system.cpu.dcache.demandAvgMshrMissLatency::total 55614.886192                       # average overall mshr miss latency ((Tick/Count))
system.cpu.dcache.overallAvgMshrMissLatency::cpu.data 55614.886192                       # average overall mshr miss latency ((Tick/Count))
system.cpu.dcache.overallAvgMshrMissLatency::total 55614.886192                       # average overall mshr miss latency ((Tick/Count))
system.cpu.dcache.replacements                   1853                       # number of replacements (Count)
system.cpu.dcache.ReadReq.hits::cpu.data      5752197                       # number of ReadReq hits (Count)
system.cpu.dcache.ReadReq.hits::total         5752197                       # number of ReadReq hits (Count)
system.cpu.dcache.ReadReq.misses::cpu.data         5885                       # number of ReadReq misses (Count)
system.cpu.dcache.ReadReq.misses::total          5885                       # number of ReadReq misses (Count)
system.cpu.dcache.ReadReq.missLatency::cpu.data    359279000                       # number of ReadReq miss ticks (Tick)
system.cpu.dcache.ReadReq.missLatency::total    359279000                       # number of ReadReq miss ticks (Tick)
system.cpu.dcache.ReadReq.accesses::cpu.data      5758082                       # number of ReadReq accesses(hits+misses) (Count)
system.cpu.dcache.ReadReq.accesses::total      5758082                       # number of ReadReq accesses(hits+misses) (Count)
system.cpu.dcache.ReadReq.missRate::cpu.data     0.001022                       # miss rate for ReadReq accesses (Ratio)
system.cpu.dcache.ReadReq.missRate::total     0.001022                       # miss rate for ReadReq accesses (Ratio)
system.cpu.dcache.ReadReq.avgMissLatency::cpu.data 61049.957519                       # average ReadReq miss latency ((Tick/Count))
system.cpu.dcache.ReadReq.avgMissLatency::total 61049.957519                       # average ReadReq miss latency ((Tick/Count))
system.cpu.dcache.ReadReq.mshrHits::cpu.data         4360                       # number of ReadReq MSHR hits (Count)
system.cpu.dcache.ReadReq.mshrHits::total         4360                       # number of ReadReq MSHR hits (Count)
system.cpu.dcache.ReadReq.mshrMisses::cpu.data         1525                       # number of ReadReq MSHR misses (Count)
system.cpu.dcache.ReadReq.mshrMisses::total         1525                       # number of ReadReq MSHR misses (Count)
system.cpu.dcache.ReadReq.mshrMissLatency::cpu.data     90620500                       # number of ReadReq MSHR miss ticks (Tick)
system.cpu.dcache.ReadReq.mshrMissLatency::total     90620500                       # number of ReadReq MSHR miss ticks (Tick)
system.cpu.dcache.ReadReq.mshrMissRate::cpu.data     0.000265                       # mshr miss rate for ReadReq accesses (Ratio)
system.cpu.dcache.ReadReq.mshrMissRate::total     0.000265                       # mshr miss rate for ReadReq accesses (Ratio)
system.cpu.dcache.ReadReq.avgMshrMissLatency::cpu.data 59423.278689                       # average ReadReq mshr miss latency ((Tick/Count))
system.cpu.dcache.ReadReq.avgMshrMissLatency::total 59423.278689                       # average ReadReq mshr miss latency ((Tick/Count))
system.cpu.dcache.WriteReq.hits::cpu.data      3215688                       # number of WriteReq hits (Count)
system.cpu.dcache.WriteReq.hits::total        3215688                       # number of WriteReq hits (Count)
system.cpu.dcache.WriteReq.misses::cpu.data          339                       # number of WriteReq misses (Count)
system.cpu.dcache.WriteReq.misses::total          339                       # number of WriteReq misses (Count)
system.cpu.dcache.WriteReq.missLatency::cpu.data     12947499                       # number of WriteReq miss ticks (Tick)
system.cpu.dcache.WriteReq.missLatency::total     12947499                       # number of WriteReq miss ticks (Tick)
system.cpu.dcache.WriteReq.accesses::cpu.data      3216027                       # number of WriteReq accesses(hits+misses) (Count)
system.cpu.dcache.WriteReq.accesses::total      3216027                       # number of WriteReq accesses(hits+misses) (Count)
system.cpu.dcache.WriteReq.missRate::cpu.data     0.000105                       # miss rate for WriteReq accesses (Ratio)
system.cpu.dcache.WriteReq.missRate::total     0.000105                       # miss rate for WriteReq accesses (Ratio)
system.cpu.dcache.WriteReq.avgMissLatency::cpu.data 38193.212389                       # average WriteReq miss latency ((Tick/Count))
system.cpu.dcache.WriteReq.avgMissLatency::total 38193.212389                       # average WriteReq miss latency ((Tick/Count))
system.cpu.dcache.WriteReq.mshrHits::cpu.data           10                       # number of WriteReq MSHR hits (Count)
system.cpu.dcache.WriteReq.mshrHits::total           10                       # number of WriteReq MSHR hits (Count)
system.cpu.dcache.WriteReq.mshrMisses::cpu.data          329                       # number of WriteReq MSHR misses (Count)
system.cpu.dcache.WriteReq.mshrMisses::total          329                       # number of WriteReq MSHR misses (Count)
system.cpu.dcache.WriteReq.mshrMissLatency::cpu.data     12489499                       # number of WriteReq MSHR miss ticks (Tick)
system.cpu.dcache.WriteReq.mshrMissLatency::total     12489499                       # number of WriteReq MSHR miss ticks (Tick)
system.cpu.dcache.WriteReq.mshrMissRate::cpu.data     0.000102                       # mshr miss rate for WriteReq accesses (Ratio)
system.cpu.dcache.WriteReq.mshrMissRate::total     0.000102                       # mshr miss rate for WriteReq accesses (Ratio)
system.cpu.dcache.WriteReq.avgMshrMissLatency::cpu.data 37962.003040                       # average WriteReq mshr miss latency ((Tick/Count))
system.cpu.dcache.WriteReq.avgMshrMissLatency::total 37962.003040                       # average WriteReq mshr miss latency ((Tick/Count))
system.cpu.dcache.power_state.pwrStateResidencyTicks::UNDEFINED   8231059500                       # Cumulative time (in ticks) in various power states (Tick)
system.cpu.dcache.tags.tagsInUse                   64                       # Average ticks per tags in use ((Tick/Count))
system.cpu.dcache.tags.totalRefs              7074066                       # Total number of references to valid blocks. (Count)
system.cpu.dcache.tags.sampledRefs               1853                       # Sample count of references to valid blocks. (Count)
system.cpu.dcache.tags.avgRefs            3817.628710                       # Average number of references to valid blocks. ((Count/Count))
system.cpu.dcache.tags.warmupTick             8595500                       # The tick when the warmup percentage was hit. (Tick)
system.cpu.dcache.tags.occupancies::cpu.data           64                       # Average occupied blocks per tick, per requestor ((Count/Tick))
system.cpu.dcache.tags.avgOccs::cpu.data            1                       # Average percentage of cache occupancy ((Ratio/Tick))
system.cpu.dcache.tags.avgOccs::total               1                       # Average percentage of cache occupancy ((Ratio/Tick))
system.cpu.dcache.tags.occupanciesTaskId::1024           64                       # Occupied blocks per task id (Count)
system.cpu.dcache.tags.ageTaskId_1024::0           24                       # Occupied blocks per task id, per block age (Count)
system.cpu.dcache.tags.ageTaskId_1024::3           40                       # Occupied blocks per task id, per block age (Count)
system.cpu.dcache.tags.ratioOccsTaskId::1024            1                       # Ratio of occupied blocks and all blocks, per task id (Ratio)
system.cpu.dcache.tags.tagAccesses           17950071                       # Number of tag accesses (Count)
system.cpu.dcache.tags.dataAccesses          17950071                       # Number of data accesses (Count)
system.cpu.dcache.tags.power_state.pwrStateResidencyTicks::UNDEFINED   8231059500                       # Cumulative time (in ticks) in various power states (Tick)
system.cpu.decode.idleCycles                  4356241                       # Number of cycles decode is idle (Cycle)
system.cpu.decode.blockedCycles                438696                       # Number of cycles decode is blocked (Cycle)
system.cpu.decode.runCycles                  11046365                       # Number of cycles decode is running (Cycle)
system.cpu.decode.unblockCycles                130063                       # Number of cycles decode is unblocking (Cycle)
system.cpu.decode.squashCycles                 125410                       # Number of cycles decode is squashing (Cycle)
system.cpu.decode.branchResolved              2071085                       # Number of times decode resolved a branch (Count)
system.cpu.decode.branchMispred                   134                       # Number of times decode detected a branch misprediction (Count)
system.cpu.decode.decodedInsts               45398541                       # Number of instructions handled by decode (Count)
system.cpu.decode.squashedInsts                   441                       # Number of squashed instructions handled by decode (Count)
system.cpu.fetch.icacheStallCycles            4445150                       # Number of cycles fetch is stalled on an Icache miss (Cycle)
system.cpu.fetch.insts                       29955884                       # Number of instructions fetch has processed (Count)
system.cpu.fetch.branches                     2868499                       # Number of branches that fetch encountered (Count)
system.cpu.fetch.predictedBranches            2133595                       # Number of branches that fetch has predicted taken (Count)
system.cpu.fetch.cycles                      11524387                       # Number of cycles fetch has run and was not squashing or blocked (Cycle)
system.cpu.fetch.squashCycles                  251084                       # Number of cycles fetch has spent squashing (Cycle)
system.cpu.fetch.miscStallCycles                  219                       # Number of cycles fetch has spent waiting on interrupts, or bad addresses, or out of MSHRs (Cycle)
system.cpu.fetch.pendingTrapStallCycles          1477                       # Number of stall cycles due to pending traps (Cycle)
system.cpu.fetch.cacheLines                   4358204                       # Number of cache lines fetched (Count)
system.cpu.fetch.icacheSquashes                 56707                       # Number of outstanding Icache misses that were squashed (Count)
system.cpu.fetch.nisnDist::samples           16096775                       # Number of instructions fetched each cycle (Total) (Count)
system.cpu.fetch.nisnDist::mean              2.844141                       # Number of instructions fetched each cycle (Total) (Count)
system.cpu.fetch.nisnDist::stdev             2.194664                       # Number of instructions fetched each cycle (Total) (Count)
system.cpu.fetch.nisnDist::underflows               0      0.00%      0.00% # Number of instructions fetched each cycle (Total) (Count)
system.cpu.fetch.nisnDist::0                  4683761     29.10%     29.10% # Number of instructions fetched each cycle (Total) (Count)
system.cpu.fetch.nisnDist::1                  1417842      8.81%     37.91% # Number of instructions fetched each cycle (Total) (Count)
system.cpu.fetch.nisnDist::2                   673149      4.18%     42.09% # Number of instructions fetched each cycle (Total) (Count)
system.cpu.fetch.nisnDist::3                  1456881      9.05%     51.14% # Number of instructions fetched each cycle (Total) (Count)
system.cpu.fetch.nisnDist::4                   678994      4.22%     55.36% # Number of instructions fetched each cycle (Total) (Count)
system.cpu.fetch.nisnDist::5                  7186148     44.64%    100.00% # Number of instructions fetched each cycle (Total) (Count)
system.cpu.fetch.nisnDist::overflows                0      0.00%    100.00% # Number of instructions fetched each cycle (Total) (Count)
system.cpu.fetch.nisnDist::min_value                0                       # Number of instructions fetched each cycle (Total) (Count)
system.cpu.fetch.nisnDist::max_value                5                       # Number of instructions fetched each cycle (Total) (Count)
system.cpu.fetch.nisnDist::total             16096775                       # Number of instructions fetched each cycle (Total) (Count)
system.cpu.fetch.branchRate                  0.177906                       # Number of branch fetches per cycle (Ratio)
system.cpu.fetch.rate                        1.857886                       # Number of inst fetches per cycle ((Count/Cycle))
system.cpu.icache.demandHits::cpu.inst        4357135                       # number of demand (read+write) hits (Count)
system.cpu.icache.demandHits::total           4357135                       # number of demand (read+write) hits (Count)
system.cpu.icache.overallHits::cpu.inst       4357135                       # number of overall hits (Count)
system.cpu.icache.overallHits::total          4357135                       # number of overall hits (Count)
system.cpu.icache.demandMisses::cpu.inst         1069                       # number of demand (read+write) misses (Count)
system.cpu.icache.demandMisses::total            1069                       # number of demand (read+write) misses (Count)
system.cpu.icache.overallMisses::cpu.inst         1069                       # number of overall misses (Count)
system.cpu.icache.overallMisses::total           1069                       # number of overall misses (Count)
system.cpu.icache.demandMissLatency::cpu.inst     38466000                       # number of demand (read+write) miss ticks (Tick)
system.cpu.icache.demandMissLatency::total     38466000                       # number of demand (read+write) miss ticks (Tick)
system.cpu.icache.overallMissLatency::cpu.inst     38466000                       # number of overall miss ticks (Tick)
system.cpu.icache.overallMissLatency::total     38466000                       # number of overall miss ticks (Tick)
system.cpu.icache.demandAccesses::cpu.inst      4358204                       # number of demand (read+write) accesses (Count)
system.cpu.icache.demandAccesses::total       4358204                       # number of demand (read+write) accesses (Count)
system.cpu.icache.overallAccesses::cpu.inst      4358204                       # number of overall (read+write) accesses (Count)
system.cpu.icache.overallAccesses::total      4358204                       # number of overall (read+write) accesses (Count)
system.cpu.icache.demandMissRate::cpu.inst     0.000245                       # miss rate for demand accesses (Ratio)
system.cpu.icache.demandMissRate::total      0.000245                       # miss rate for demand accesses (Ratio)
system.cpu.icache.overallMissRate::cpu.inst     0.000245                       # miss rate for overall accesses (Ratio)
system.cpu.icache.overallMissRate::total     0.000245                       # miss rate for overall accesses (Ratio)
system.cpu.icache.demandAvgMissLatency::cpu.inst 35983.161833                       # average overall miss latency in ticks ((Tick/Count))
system.cpu.icache.demandAvgMissLatency::total 35983.161833                       # average overall miss latency in ticks ((Tick/Count))
system.cpu.icache.overallAvgMissLatency::cpu.inst 35983.161833                       # average overall miss latency ((Tick/Count))
system.cpu.icache.overallAvgMissLatency::total 35983.161833                       # average overall miss latency ((Tick/Count))
system.cpu.icache.blockedCycles::no_mshrs          179                       # number of cycles access was blocked (Cycle)
system.cpu.icache.blockedCycles::no_targets            0                       # number of cycles access was blocked (Cycle)
system.cpu.icache.blockedCauses::no_mshrs            3                       # number of times access was blocked (Count)
system.cpu.icache.blockedCauses::no_targets            0                       # number of times access was blocked (Count)
system.cpu.icache.avgBlocked::no_mshrs      59.666667                       # average number of cycles each access was blocked ((Cycle/Count))
system.cpu.icache.avgBlocked::no_targets          nan                       # average number of cycles each access was blocked ((Cycle/Count))
system.cpu.icache.demandMshrHits::cpu.inst          102                       # number of demand (read+write) MSHR hits (Count)
system.cpu.icache.demandMshrHits::total           102                       # number of demand (read+write) MSHR hits (Count)
system.cpu.icache.overallMshrHits::cpu.inst          102                       # number of overall MSHR hits (Count)
system.cpu.icache.overallMshrHits::total          102                       # number of overall MSHR hits (Count)
system.cpu.icache.demandMshrMisses::cpu.inst          967                       # number of demand (read+write) MSHR misses (Count)
system.cpu.icache.demandMshrMisses::total          967                       # number of demand (read+write) MSHR misses (Count)
system.cpu.icache.overallMshrMisses::cpu.inst          967                       # number of overall MSHR misses (Count)
system.cpu.icache.overallMshrMisses::total          967                       # number of overall MSHR misses (Count)
system.cpu.icache.demandMshrMissLatency::cpu.inst     33222500                       # number of demand (read+write) MSHR miss ticks (Tick)
system.cpu.icache.demandMshrMissLatency::total     33222500                       # number of demand (read+write) MSHR miss ticks (Tick)
system.cpu.icache.overallMshrMissLatency::cpu.inst     33222500                       # number of overall MSHR miss ticks (Tick)
system.cpu.icache.overallMshrMissLatency::total     33222500                       # number of overall MSHR miss ticks (Tick)
system.cpu.icache.demandMshrMissRate::cpu.inst     0.000222                       # mshr miss ratio for demand accesses (Ratio)
system.cpu.icache.demandMshrMissRate::total     0.000222                       # mshr miss ratio for demand accesses (Ratio)
system.cpu.icache.overallMshrMissRate::cpu.inst     0.000222                       # mshr miss ratio for overall accesses (Ratio)
system.cpu.icache.overallMshrMissRate::total     0.000222                       # mshr miss ratio for overall accesses (Ratio)
system.cpu.icache.demandAvgMshrMissLatency::cpu.inst 34356.256463                       # average overall mshr miss latency ((Tick/Count))
system.cpu.icache.demandAvgMshrMissLatency::total 34356.256463                       # average overall mshr miss latency ((Tick/Count))
system.cpu.icache.overallAvgMshrMissLatency::cpu.inst 34356.256463                       # average overall mshr miss latency ((Tick/Count))
system.cpu.icache.overallAvgMshrMissLatency::total 34356.256463                       # average overall mshr miss latency ((Tick/Count))
system.cpu.icache.replacements                    966                       # number of replacements (Count)
system.cpu.icache.ReadReq.hits::cpu.inst      4357135                       # number of ReadReq hits (Count)
system.cpu.icache.ReadReq.hits::total         4357135                       # number of ReadReq hits (Count)
system.cpu.icache.ReadReq.misses::cpu.inst         1069                       # number of ReadReq misses (Count)
system.cpu.icache.ReadReq.misses::total          1069                       # number of ReadReq misses (Count)
system.cpu.icache.ReadReq.missLatency::cpu.inst     38466000                       # number of ReadReq miss ticks (Tick)
system.cpu.icache.ReadReq.missLatency::total     38466000                       # number of ReadReq miss ticks (Tick)
system.cpu.icache.ReadReq.accesses::cpu.inst      4358204                       # number of ReadReq accesses(hits+misses) (Count)
system.cpu.icache.ReadReq.accesses::total      4358204                       # number of ReadReq accesses(hits+misses) (Count)
system.cpu.icache.ReadReq.missRate::cpu.inst     0.000245                       # miss rate for ReadReq accesses (Ratio)
system.cpu.icache.ReadReq.missRate::total     0.000245                       # miss rate for ReadReq accesses (Ratio)
system.cpu.icache.ReadReq.avgMissLatency::cpu.inst 35983.161833                       # average ReadReq miss latency ((Tick/Count))
system.cpu.icache.ReadReq.avgMissLatency::total 35983.161833                       # average ReadReq miss latency ((Tick/Count))
system.cpu.icache.ReadReq.mshrHits::cpu.inst          102                       # number of ReadReq MSHR hits (Count)
system.cpu.icache.ReadReq.mshrHits::total          102                       # number of ReadReq MSHR hits (Count)
system.cpu.icache.ReadReq.mshrMisses::cpu.inst          967                       # number of ReadReq MSHR misses (Count)
system.cpu.icache.ReadReq.mshrMisses::total          967                       # number of ReadReq MSHR misses (Count)
system.cpu.icache.ReadReq.mshrMissLatency::cpu.inst     33222500                       # number of ReadReq MSHR miss ticks (Tick)
system.cpu.icache.ReadReq.mshrMissLatency::total     33222500                       # number of ReadReq MSHR miss ticks (Tick)
system.cpu.icache.ReadReq.mshrMissRate::cpu.inst     0.000222                       # mshr miss rate for ReadReq accesses (Ratio)
system.cpu.icache.ReadReq.mshrMissRate::total     0.000222                       # mshr miss rate for ReadReq accesses (Ratio)
system.cpu.icache.ReadReq.avgMshrMissLatency::cpu.inst 34356.256463                       # average ReadReq mshr miss latency ((Tick/Count))
system.cpu.icache.ReadReq.avgMshrMissLatency::total 34356.256463                       # average ReadReq mshr miss latency ((Tick/Count))
system.cpu.icache.power_state.pwrStateResidencyTicks::UNDEFINED   8231059500                       # Cumulative time (in ticks) in various power states (Tick)
system.cpu.icache.tags.tagsInUse            63.999920                       # Average ticks per tags in use ((Tick/Count))
system.cpu.icache.tags.totalRefs              4346819                       # Total number of references to valid blocks. (Count)
system.cpu.icache.tags.sampledRefs                967                       # Sample count of references to valid blocks. (Count)
system.cpu.icache.tags.avgRefs            4495.159255                       # Average number of references to valid blocks. ((Count/Count))
system.cpu.icache.tags.warmupTick            11091000                       # The tick when the warmup percentage was hit. (Tick)
system.cpu.icache.tags.occupancies::cpu.inst    63.999920                       # Average occupied blocks per tick, per requestor ((Count/Tick))
system.cpu.icache.tags.avgOccs::cpu.inst     0.999999                       # Average percentage of cache occupancy ((Ratio/Tick))
system.cpu.icache.tags.avgOccs::total        0.999999                       # Average percentage of cache occupancy ((Ratio/Tick))
system.cpu.icache.tags.occupanciesTaskId::1024           64                       # Occupied blocks per task id (Count)
system.cpu.icache.tags.ageTaskId_1024::0           40                       # Occupied blocks per task id, per block age (Count)
system.cpu.icache.tags.ageTaskId_1024::3           24                       # Occupied blocks per task id, per block age (Count)
system.cpu.icache.tags.ratioOccsTaskId::1024            1                       # Ratio of occupied blocks and all blocks, per task id (Ratio)
system.cpu.icache.tags.tagAccesses            8717375                       # Number of tag accesses (Count)
system.cpu.icache.tags.dataAccesses           8717375                       # Number of data accesses (Count)
system.cpu.icache.tags.power_state.pwrStateResidencyTicks::UNDEFINED   8231059500                       # Cumulative time (in ticks) in various power states (Tick)
system.cpu.iew.idleCycles                           0                       # Number of cycles IEW is idle (Cycle)
system.cpu.iew.squashCycles                    125410                       # Number of cycles IEW is squashing (Cycle)
system.cpu.iew.blockCycles                     320245                       # Number of cycles IEW is blocking (Cycle)
system.cpu.iew.unblockCycles                      370                       # Number of cycles IEW is unblocking (Cycle)
system.cpu.iew.dispatchedInsts               44254117                       # Number of instructions dispatched to IQ (Count)
system.cpu.iew.dispSquashedInsts                  143                       # Number of squashed instructions skipped by dispatch (Count)
system.cpu.iew.dispLoadInsts                 14414500                       # Number of dispatched load instructions (Count)
system.cpu.iew.dispStoreInsts                 3524764                       # Number of dispatched store instructions (Count)
system.cpu.iew.dispNonSpecInsts                    14                       # Number of dispatched non-speculative instructions (Count)
system.cpu.iew.iqFullEvents                         0                       # Number of times the IQ has become full, causing a stall (Count)
system.cpu.iew.lsqFullEvents                      369                       # Number of times the LSQ has become full, causing a stall (Count)
system.cpu.iew.memOrderViolationEvents            183                       # Number of memory order violations (Count)
system.cpu.iew.predictedTakenIncorrect          62841                       # Number of branches that were predicted taken incorrectly (Count)
system.cpu.iew.predictedNotTakenIncorrect        63226                       # Number of branches that were predicted not taken incorrectly (Count)
system.cpu.iew.branchMispredicts               126067                       # Number of branch mispredicts detected at execute (Count)
system.cpu.iew.instsToCommit                 43347515                       # Cumulative count of insts sent to commit (Count)
system.cpu.iew.writebackCount                43239253                       # Cumulative count of insts written-back (Count)
system.cpu.iew.producerInst                  37047444                       # Number of instructions producing a value (Count)
system.cpu.iew.consumerInst                  39872749                       # Number of instructions consuming a value (Count)
system.cpu.iew.wbRate                        2.681730                       # Insts written-back per cycle ((Count/Cycle))
system.cpu.iew.wbFanout                      0.929142                       # Average fanout of values written-back ((Count/Count))
system.cpu.interrupts.clk_domain.clock           8000                       # Clock period in ticks (Tick)
system.cpu.lsq0.forwLoads                     8438525                       # Number of loads that had data forwarded from stores (Count)
system.cpu.lsq0.squashedLoads                 1074992                       # Number of loads squashed (Count)
system.cpu.lsq0.ignoredResponses                 4513                       # Number of memory responses ignored because the instruction is squashed (Count)
system.cpu.lsq0.memOrderViolation                 183                       # Number of memory ordering violations (Count)
system.cpu.lsq0.squashedStores                 308738                       # Number of stores squashed (Count)
system.cpu.lsq0.rescheduledLoads                    8                       # Number of loads that were rescheduled (Count)
system.cpu.lsq0.blockedByCache                     10                       # Number of times an access to memory failed due to the cache being blocked (Count)
system.cpu.lsq0.loadToUse::samples           13339506                       # Distribution of cycle latency between the first time a load is issued and its completion (Unspecified)
system.cpu.lsq0.loadToUse::mean              2.550928                       # Distribution of cycle latency between the first time a load is issued and its completion (Unspecified)
system.cpu.lsq0.loadToUse::stdev             2.411558                       # Distribution of cycle latency between the first time a load is issued and its completion (Unspecified)
system.cpu.lsq0.loadToUse::0-9               13335582     99.97%     99.97% # Distribution of cycle latency between the first time a load is issued and its completion (Unspecified)
system.cpu.lsq0.loadToUse::10-19                   45      0.00%     99.97% # Distribution of cycle latency between the first time a load is issued and its completion (Unspecified)
system.cpu.lsq0.loadToUse::20-29                  337      0.00%     99.97% # Distribution of cycle latency between the first time a load is issued and its completion (Unspecified)
system.cpu.lsq0.loadToUse::30-39                    7      0.00%     99.97% # Distribution of cycle latency between the first time a load is issued and its completion (Unspecified)
system.cpu.lsq0.loadToUse::40-49                    4      0.00%     99.97% # Distribution of cycle latency between the first time a load is issued and its completion (Unspecified)
system.cpu.lsq0.loadToUse::50-59                    6      0.00%     99.97% # Distribution of cycle latency between the first time a load is issued and its completion (Unspecified)
system.cpu.lsq0.loadToUse::60-69                   10      0.00%     99.97% # Distribution of cycle latency between the first time a load is issued and its completion (Unspecified)
system.cpu.lsq0.loadToUse::70-79                   30      0.00%     99.97% # Distribution of cycle latency between the first time a load is issued and its completion (Unspecified)
system.cpu.lsq0.loadToUse::80-89                   42      0.00%     99.97% # Distribution of cycle latency between the first time a load is issued and its completion (Unspecified)
system.cpu.lsq0.loadToUse::90-99                   87      0.00%     99.97% # Distribution of cycle latency between the first time a load is issued and its completion (Unspecified)
system.cpu.lsq0.loadToUse::100-109                332      0.00%     99.98% # Distribution of cycle latency between the first time a load is issued and its completion (Unspecified)
system.cpu.lsq0.loadToUse::110-119                404      0.00%     99.98% # Distribution of cycle latency between the first time a load is issued and its completion (Unspecified)
system.cpu.lsq0.loadToUse::120-129                610      0.00%     99.98% # Distribution of cycle latency between the first time a load is issued and its completion (Unspecified)
system.cpu.lsq0.loadToUse::130-139               1623      0.01%    100.00% # Distribution of cycle latency between the first time a load is issued and its completion (Unspecified)
system.cpu.lsq0.loadToUse::140-149                 90      0.00%    100.00% # Distribution of cycle latency between the first time a load is issued and its completion (Unspecified)
system.cpu.lsq0.loadToUse::150-159                 36      0.00%    100.00% # Distribution of cycle latency between the first time a load is issued and its completion (Unspecified)
system.cpu.lsq0.loadToUse::160-169                152      0.00%    100.00% # Distribution of cycle latency between the first time a load is issued and its completion (Unspecified)
system.cpu.lsq0.loadToUse::170-179                  9      0.00%    100.00% # Distribution of cycle latency between the first time a load is issued and its completion (Unspecified)
system.cpu.lsq0.loadToUse::190-199                 21      0.00%    100.00% # Distribution of cycle latency between the first time a load is issued and its completion (Unspecified)
system.cpu.lsq0.loadToUse::200-209                 12      0.00%    100.00% # Distribution of cycle latency between the first time a load is issued and its completion (Unspecified)
system.cpu.lsq0.loadToUse::210-219                  5      0.00%    100.00% # Distribution of cycle latency between the first time a load is issued and its completion (Unspecified)
system.cpu.lsq0.loadToUse::220-229                  3      0.00%    100.00% # Distribution of cycle latency between the first time a load is issued and its completion (Unspecified)
system.cpu.lsq0.loadToUse::240-249                  1      0.00%    100.00% # Distribution of cycle latency between the first time a load is issued and its completion (Unspecified)
system.cpu.lsq0.loadToUse::250-259                  5      0.00%    100.00% # Distribution of cycle latency between the first time a load is issued and its completion (Unspecified)
system.cpu.lsq0.loadToUse::260-269                  2      0.00%    100.00% # Distribution of cycle latency between the first time a load is issued and its completion (Unspecified)
system.cpu.lsq0.loadToUse::270-279                  1      0.00%    100.00% # Distribution of cycle latency between the first time a load is issued and its completion (Unspecified)
system.cpu.lsq0.loadToUse::280-289                  3      0.00%    100.00% # Distribution of cycle latency between the first time a load is issued and its completion (Unspecified)
system.cpu.lsq0.loadToUse::overflows               47      0.00%    100.00% # Distribution of cycle latency between the first time a load is issued and its completion (Unspecified)
system.cpu.lsq0.loadToUse::min_value                2                       # Distribution of cycle latency between the first time a load is issued and its completion (Unspecified)
system.cpu.lsq0.loadToUse::max_value              712                       # Distribution of cycle latency between the first time a load is issued and its completion (Unspecified)
system.cpu.lsq0.loadToUse::total             13339506                       # Distribution of cycle latency between the first time a load is issued and its completion (Unspecified)
system.cpu.mmu.dtb.rdAccesses                14196634                       # TLB accesses on read requests (Count)
system.cpu.mmu.dtb.wrAccesses                 3404125                       # TLB accesses on write requests (Count)
system.cpu.mmu.dtb.rdMisses                        42                       # TLB misses on read requests (Count)
system.cpu.mmu.dtb.wrMisses                         9                       # TLB misses on write requests (Count)
system.cpu.mmu.dtb.walker.power_state.pwrStateResidencyTicks::UNDEFINED   8231059500                       # Cumulative time (in ticks) in various power states (Tick)
system.cpu.mmu.itb.rdAccesses                       0                       # TLB accesses on read requests (Count)
system.cpu.mmu.itb.wrAccesses                 4358426                       # TLB accesses on write requests (Count)
system.cpu.mmu.itb.rdMisses                         0                       # TLB misses on read requests (Count)
system.cpu.mmu.itb.wrMisses                       254                       # TLB misses on write requests (Count)
system.cpu.mmu.itb.walker.power_state.pwrStateResidencyTicks::UNDEFINED   8231059500                       # Cumulative time (in ticks) in various power states (Tick)
system.cpu.power_state.pwrStateResidencyTicks::ON   8231059500                       # Cumulative time (in ticks) in various power states (Tick)
system.cpu.rename.squashCycles                 125410                       # Number of cycles rename is squashing (Cycle)
system.cpu.rename.idleCycles                  4477843                       # Number of cycles rename is idle (Cycle)
system.cpu.rename.blockCycles                  426780                       # Number of cycles rename is blocking (Cycle)
system.cpu.rename.serializeStallCycles            141                       # count of cycles rename stalled for serializing inst (Cycle)
[...]
system.mem_ctrls.dram.numReads::cpu.inst          433                       # Number of read requests responded to by this memory (Count)
system.mem_ctrls.dram.numReads::cpu.data         1390                       # Number of read requests responded to by this memory (Count)
system.mem_ctrls.dram.numReads::total            1823                       # Number of read requests responded to by this memory (Count)
system.mem_ctrls.dram.numWrites::writebacks          123                       # Number of write requests responded to by this memory (Count)
system.mem_ctrls.dram.numWrites::total            123                       # Number of write requests responded to by this memory (Count)
system.mem_ctrls.dram.bwRead::cpu.inst        3434338                       # Total read bandwidth from this memory ((Byte/Second))
system.mem_ctrls.dram.bwRead::cpu.data       11024779                       # Total read bandwidth from this memory ((Byte/Second))
system.mem_ctrls.dram.bwRead::total          14459117                       # Total read bandwidth from this memory ((Byte/Second))
system.mem_ctrls.dram.bwInstRead::cpu.inst      3434338                       # Instruction read bandwidth from this memory ((Byte/Second))
system.mem_ctrls.dram.bwInstRead::total       3434338                       # Instruction read bandwidth from this memory ((Byte/Second))
system.mem_ctrls.dram.bwWrite::writebacks       975574                       # Write bandwidth from this memory ((Byte/Second))
system.mem_ctrls.dram.bwWrite::total           975574                       # Write bandwidth from this memory ((Byte/Second))
system.mem_ctrls.dram.bwTotal::writebacks       975574                       # Total bandwidth to/from this memory ((Byte/Second))
system.mem_ctrls.dram.bwTotal::cpu.inst       3434338                       # Total bandwidth to/from this memory ((Byte/Second))
system.mem_ctrls.dram.bwTotal::cpu.data      11024779                       # Total bandwidth to/from this memory ((Byte/Second))
system.mem_ctrls.dram.bwTotal::total         15434691                       # Total bandwidth to/from this memory ((Byte/Second))
system.mem_ctrls.dram.readBursts                 1809                       # Number of DRAM read bursts (Count)
system.mem_ctrls.dram.writeBursts                 115                       # Number of DRAM write bursts (Count)
system.mem_ctrls.dram.perBankRdBursts::0          180                       # Per bank write bursts (Count)
system.mem_ctrls.dram.perBankRdBursts::1          170                       # Per bank write bursts (Count)
system.mem_ctrls.dram.perBankRdBursts::2          102                       # Per bank write bursts (Count)
system.mem_ctrls.dram.perBankRdBursts::3          153                       # Per bank write bursts (Count)
system.mem_ctrls.dram.perBankRdBursts::4          161                       # Per bank write bursts (Count)
system.mem_ctrls.dram.perBankRdBursts::5           43                       # Per bank write bursts (Count)
system.mem_ctrls.dram.perBankRdBursts::6           23                       # Per bank write bursts (Count)
system.mem_ctrls.dram.perBankRdBursts::7           18                       # Per bank write bursts (Count)
system.mem_ctrls.dram.perBankRdBursts::8          145                       # Per bank write bursts (Count)
system.mem_ctrls.dram.perBankRdBursts::9           64                       # Per bank write bursts (Count)
system.mem_ctrls.dram.perBankRdBursts::10          128                       # Per bank write bursts (Count)
system.mem_ctrls.dram.perBankRdBursts::11          143                       # Per bank write bursts (Count)
system.mem_ctrls.dram.perBankRdBursts::12          143                       # Per bank write bursts (Count)
system.mem_ctrls.dram.perBankRdBursts::13           83                       # Per bank write bursts (Count)
system.mem_ctrls.dram.perBankRdBursts::14          141                       # Per bank write bursts (Count)
system.mem_ctrls.dram.perBankRdBursts::15          112                       # Per bank write bursts (Count)
system.mem_ctrls.dram.perBankWrBursts::0            2                       # Per bank write bursts (Count)
system.mem_ctrls.dram.perBankWrBursts::1           22                       # Per bank write bursts (Count)
system.mem_ctrls.dram.perBankWrBursts::2            0                       # Per bank write bursts (Count)
system.mem_ctrls.dram.perBankWrBursts::3            5                       # Per bank write bursts (Count)
system.mem_ctrls.dram.perBankWrBursts::4            0                       # Per bank write bursts (Count)
system.mem_ctrls.dram.perBankWrBursts::5            0                       # Per bank write bursts (Count)
system.mem_ctrls.dram.perBankWrBursts::6            1                       # Per bank write bursts (Count)
system.mem_ctrls.dram.perBankWrBursts::7            0                       # Per bank write bursts (Count)
system.mem_ctrls.dram.perBankWrBursts::8           46                       # Per bank write bursts (Count)
system.mem_ctrls.dram.perBankWrBursts::9           34                       # Per bank write bursts (Count)
system.mem_ctrls.dram.perBankWrBursts::10            0                       # Per bank write bursts (Count)
system.mem_ctrls.dram.perBankWrBursts::11            0                       # Per bank write bursts (Count)
system.mem_ctrls.dram.perBankWrBursts::12            0                       # Per bank write bursts (Count)
system.mem_ctrls.dram.perBankWrBursts::13            3                       # Per bank write bursts (Count)
system.mem_ctrls.dram.perBankWrBursts::14            1                       # Per bank write bursts (Count)
system.mem_ctrls.dram.perBankWrBursts::15            1                       # Per bank write bursts (Count)
system.mem_ctrls.dram.totQLat                13676250                       # Total ticks spent queuing (Tick)
system.mem_ctrls.dram.totBusLat               9045000                       # Total ticks spent in databus transfers (Tick)
system.mem_ctrls.dram.totMemAccLat           47595000                       # Total ticks spent from burst creation until serviced by the DRAM (Tick)
system.mem_ctrls.dram.avgQLat                 7560.12                       # Average queueing delay per DRAM burst ((Tick/Count))
system.mem_ctrls.dram.avgBusLat               5000.00                       # Average bus latency per DRAM burst ((Tick/Count))
system.mem_ctrls.dram.avgMemAccLat           26310.12                       # Average memory access latency per DRAM burst ((Tick/Count))
system.mem_ctrls.dram.readRowHits                1540                       # Number of row buffer hits during reads (Count)
system.mem_ctrls.dram.writeRowHits                 93                       # Number of row buffer hits during writes (Count)
system.mem_ctrls.dram.readRowHitRate            85.13                       # Row buffer hit rate for reads (Ratio)
system.mem_ctrls.dram.writeRowHitRate           80.87                       # Row buffer hit rate for writes (Ratio)
system.mem_ctrls.dram.bytesPerActivate::samples          302                       # Bytes accessed per row activation (Byte)
system.mem_ctrls.dram.bytesPerActivate::mean   419.178808                       # Bytes accessed per row activation (Byte)
system.mem_ctrls.dram.bytesPerActivate::gmean   255.237452                       # Bytes accessed per row activation (Byte)
system.mem_ctrls.dram.bytesPerActivate::stdev   368.977560                       # Bytes accessed per row activation (Byte)
system.mem_ctrls.dram.bytesPerActivate::0-127           82     27.15%     27.15% # Bytes accessed per row activation (Byte)
system.mem_ctrls.dram.bytesPerActivate::128-255           56     18.54%     45.70% # Bytes accessed per row activation (Byte)
system.mem_ctrls.dram.bytesPerActivate::256-383           32     10.60%     56.29% # Bytes accessed per row activation (Byte)
system.mem_ctrls.dram.bytesPerActivate::384-511           27      8.94%     65.23% # Bytes accessed per row activation (Byte)
system.mem_ctrls.dram.bytesPerActivate::512-639           10      3.31%     68.54% # Bytes accessed per row activation (Byte)
system.mem_ctrls.dram.bytesPerActivate::640-767           19      6.29%     74.83% # Bytes accessed per row activation (Byte)
system.mem_ctrls.dram.bytesPerActivate::768-895           13      4.30%     79.14% # Bytes accessed per row activation (Byte)
system.mem_ctrls.dram.bytesPerActivate::896-1023            5      1.66%     80.79% # Bytes accessed per row activation (Byte)
system.mem_ctrls.dram.bytesPerActivate::1024-1151           58     19.21%    100.00% # Bytes accessed per row activation (Byte)
system.mem_ctrls.dram.bytesPerActivate::total          302                       # Bytes accessed per row activation (Byte)
system.mem_ctrls.dram.bytesRead                115776                       # Total bytes read (Byte)
system.mem_ctrls.dram.bytesWritten               7360                       # Total bytes written (Byte)
system.mem_ctrls.dram.avgRdBW               14.348076                       # Average DRAM read bandwidth in MiBytes/s ((Byte/Second))
system.mem_ctrls.dram.avgWrBW                0.912122                       # Average DRAM write bandwidth in MiBytes/s ((Byte/Second))
system.mem_ctrls.dram.peakBW                 12800.00                       # Theoretical peak bandwidth in MiByte/s ((Byte/Second))
system.mem_ctrls.dram.busUtil                    0.12                       # Data bus utilization in percentage (Ratio)
system.mem_ctrls.dram.busUtilRead                0.11                       # Data bus utilization in percentage for reads (Ratio)
system.mem_ctrls.dram.busUtilWrite               0.01                       # Data bus utilization in percentage for writes (Ratio)
system.mem_ctrls.dram.pageHitRate               84.88                       # Row buffer hit rate, read and write combined (Ratio)
system.mem_ctrls.dram.power_state.pwrStateResidencyTicks::UNDEFINED   8238336000                       # Cumulative time (in ticks) in various power states (Tick)
system.mem_ctrls.dram.rank0.actEnergy         1085280                       # Energy for activate commands per rank (pJ) (Joule)
system.mem_ctrls.dram.rank0.preEnergy          576840                       # Energy for precharge commands per rank (pJ) (Joule)
system.mem_ctrls.dram.rank0.readEnergy        6361740                       # Energy for read commands per rank (pJ) (Joule)
system.mem_ctrls.dram.rank0.writeEnergy        187920                       # Energy for write commands per rank (pJ) (Joule)
system.mem_ctrls.dram.rank0.refreshEnergy 637381680.000000                       # Energy for refresh commands per rank (pJ) (Joule)
system.mem_ctrls.dram.rank0.actBackEnergy    176140260                       # Energy for active background per rank (pJ) (Joule)
system.mem_ctrls.dram.rank0.preBackEnergy   2952299040                       # Energy for precharge background per rank (pJ) (Joule)
system.mem_ctrls.dram.rank0.actPowerDownEnergy            0                       # Energy for active power-down per rank (pJ) (Joule)
system.mem_ctrls.dram.rank0.prePowerDownEnergy            0                       # Energy for precharge power-down per rank (pJ) (Joule)
system.mem_ctrls.dram.rank0.selfRefreshEnergy            0                       # Energy for self refresh per rank (pJ) (Joule)
system.mem_ctrls.dram.rank0.totalEnergy    3774032760                       # Total energy per rank (pJ) (Joule)
system.mem_ctrls.dram.rank0.averagePower   467.714445                       # Core power per rank (mW) (Watt)
system.mem_ctrls.dram.rank0.totalIdleTime            0                       # Total Idle time Per DRAM Rank (Tick)
system.mem_ctrls.dram.rank0.pwrStateTime::IDLE   7673590000                       # Time in different power states (Tick)
system.mem_ctrls.dram.rank0.pwrStateTime::REF    269620000                       # Time in different power states (Tick)
system.mem_ctrls.dram.rank0.pwrStateTime::SREF            0                       # Time in different power states (Tick)
system.mem_ctrls.dram.rank0.pwrStateTime::PRE_PDN            0                       # Time in different power states (Tick)
system.mem_ctrls.dram.rank0.pwrStateTime::ACT    131341000                       # Time in different power states (Tick)
system.mem_ctrls.dram.rank0.pwrStateTime::ACT_PDN            0                       # Time in different power states (Tick)
system.mem_ctrls.dram.rank1.actEnergy         1170960                       # Energy for activate commands per rank (pJ) (Joule)
system.mem_ctrls.dram.rank1.preEnergy          618585                       # Energy for precharge commands per rank (pJ) (Joule)
system.mem_ctrls.dram.rank1.readEnergy        7325640                       # Energy for read commands per rank (pJ) (Joule)
system.mem_ctrls.dram.rank1.writeEnergy        495900                       # Energy for write commands per rank (pJ) (Joule)
system.mem_ctrls.dram.rank1.refreshEnergy 637381680.000000                       # Energy for refresh commands per rank (pJ) (Joule)
system.mem_ctrls.dram.rank1.actBackEnergy    180228870                       # Energy for active background per rank (pJ) (Joule)
system.mem_ctrls.dram.rank1.preBackEnergy   2948823840                       # Energy for precharge background per rank (pJ) (Joule)
system.mem_ctrls.dram.rank1.actPowerDownEnergy            0                       # Energy for active power-down per rank (pJ) (Joule)
system.mem_ctrls.dram.rank1.prePowerDownEnergy            0                       # Energy for precharge power-down per rank (pJ) (Joule)
system.mem_ctrls.dram.rank1.selfRefreshEnergy            0                       # Energy for self refresh per rank (pJ) (Joule)
system.mem_ctrls.dram.rank1.totalEnergy    3776045475                       # Total energy per rank (pJ) (Joule)
system.mem_ctrls.dram.rank1.averagePower   467.963880                       # Core power per rank (mW) (Watt)
system.mem_ctrls.dram.rank1.totalIdleTime            0                       # Total Idle time Per DRAM Rank (Tick)
system.mem_ctrls.dram.rank1.pwrStateTime::IDLE   7664634750                       # Time in different power states (Tick)
system.mem_ctrls.dram.rank1.pwrStateTime::REF    269620000                       # Time in different power states (Tick)
system.mem_ctrls.dram.rank1.pwrStateTime::SREF            0                       # Time in different power states (Tick)
system.mem_ctrls.dram.rank1.pwrStateTime::PRE_PDN            0                       # Time in different power states (Tick)
system.mem_ctrls.dram.rank1.pwrStateTime::ACT    140213250                       # Time in different power states (Tick)
system.mem_ctrls.dram.rank1.pwrStateTime::ACT_PDN            0                       # Time in different power states (Tick)
system.mem_ctrls.power_state.pwrStateResidencyTicks::UNDEFINED   8238336000                       # Cumulative time (in ticks) in various power states (Tick)
system.membus.transDist::ReadResp                1678                       # Transaction distribution (Count)
system.membus.transDist::WritebackDirty           123                       # Transaction distribution (Count)
system.membus.transDist::CleanEvict              1700                       # Transaction distribution (Count)
system.membus.transDist::ReadExReq                145                       # Transaction distribution (Count)
system.membus.transDist::ReadExResp               145                       # Transaction distribution (Count)
system.membus.transDist::ReadSharedReq           1679                       # Transaction distribution (Count)
system.membus.pktCount_system.l2cache.mem_side_port::system.mem_ctrls.port         5470                       # Packet count per connected requestor and responder (Count)
system.membus.pktCount_system.l2cache.mem_side_port::total         5470                       # Packet count per connected requestor and responder (Count)
system.membus.pktCount::total                    5470                       # Packet count per connected requestor and responder (Count)
system.membus.pktSize_system.l2cache.mem_side_port::system.mem_ctrls.port       124544                       # Cumulative packet size per connected requestor and responder (Byte)
system.membus.pktSize_system.l2cache.mem_side_port::total       124544                       # Cumulative packet size per connected requestor and responder (Byte)
system.membus.pktSize::total                   124544                       # Cumulative packet size per connected requestor and responder (Byte)
system.membus.snoops                                0                       # Total snoops (Count)
system.membus.snoopTraffic                          0                       # Total snoop traffic (Byte)
system.membus.snoopFanout::samples               1824                       # Request fanout histogram (Count)
system.membus.snoopFanout::mean                     0                       # Request fanout histogram (Count)
system.membus.snoopFanout::stdev                    0                       # Request fanout histogram (Count)
system.membus.snoopFanout::underflows               0      0.00%      0.00% # Request fanout histogram (Count)
system.membus.snoopFanout::0                     1824    100.00%    100.00% # Request fanout histogram (Count)
system.membus.snoopFanout::1                        0      0.00%    100.00% # Request fanout histogram (Count)
system.membus.snoopFanout::overflows                0      0.00%    100.00% # Request fanout histogram (Count)
system.membus.snoopFanout::min_value                0                       # Request fanout histogram (Count)
system.membus.snoopFanout::max_value                0                       # Request fanout histogram (Count)
system.membus.snoopFanout::total                 1824                       # Request fanout histogram (Count)
system.membus.power_state.pwrStateResidencyTicks::UNDEFINED   8238336000                       # Cumulative time (in ticks) in various power states (Tick)
system.membus.reqLayer2.occupancy             2069500                       # Layer occupancy (ticks) (Tick)
system.membus.reqLayer2.utilization               0.0                       # Layer utilization (Ratio)
system.membus.respLayer1.occupancy            4956250                       # Layer occupancy (ticks) (Tick)
system.membus.respLayer1.utilization              0.0                       # Layer utilization (Ratio)
system.membus.snoop_filter.totRequests           3647                       # Total number of requests made to the snoop filter. (Count)
system.membus.snoop_filter.hitSingleRequests         1823                       # Number of requests hitting in the snoop filter with a single holder of the requested data. (Count)
system.membus.snoop_filter.hitMultiRequests            0                       # Number of requests hitting in the snoop filter with multiple (>1) holders of the requested data. (Count)
system.membus.snoop_filter.totSnoops                0                       # Total number of snoops made to the snoop filter. (Count)
system.membus.snoop_filter.hitSingleSnoops            0                       # Number of snoops hitting in the snoop filter with a single holder of the requested data. (Count)
system.membus.snoop_filter.hitMultiSnoops            0                       # Number of snoops hitting in the snoop filter with multiple (>1) holders of the requested data. (Count)
system.workload.inst.arm                            0                       # number of arm instructions executed (Count)
system.workload.inst.quiesce                        0                       # number of quiesce instructions executed (Count)

---------- End Simulation Statistics   ----------
