
---------- Begin Simulation Statistics ----------
simSeconds                                   0.008620                       # Number of seconds simulated (Second)
simTicks                                   8619811500                       # Number of ticks simulated (Tick)
finalTick                                  8796029000                       # Number of ticks from beginning of simulation (restored from checkpoints and never reset) (Tick)
simFreq                                  1000000000000                       # The number of ticks per simulated second ((Tick/Second))
hostSeconds                                    105.41                       # Real time elapsed on the host (Second)
hostTickRate                                 81772228                       # The number of ticks simulated per host second (ticks/s) ((Tick/Second))
hostMemory                                     921240                       # Number of bytes of host memory used (Byte)
simInsts                                     26966475                       # Number of instructions simulated (Count)
simOps                                       41119203                       # Number of ops (including micro ops) simulated (Count)
hostInstRate                                   255818                       # Simulator instruction rate (inst/s) ((Count/Second))
hostOpRate                                     390078                       # Simulator op (including micro ops) rate (op/s) ((Count/Second))
system.clk_domain.clock                           500                       # Clock period in ticks (Tick)
system.clk_domain.voltage_domain.voltage            1                       # Voltage in Volts (Volt)
system.cpu.numCycles                         17239623                       # Number of cpu cycles simulated (Cycle)
system.cpu.numWorkItemsStarted                      0                       # Number of work items this cpu started (Count)
system.cpu.numWorkItemsCompleted                    0                       # Number of work items this cpu completed (Count)
system.cpu.instsAdded                        50590251                       # Number of instructions added to the IQ (excludes non-spec) (Count)
system.cpu.nonSpecInstsAdded                       45                       # Number of non-speculative instructions added to the IQ (Count)
system.cpu.instsIssued                       48557520                       # Number of instructions issued (Count)
system.cpu.squashedInstsIssued                   4629                       # Number of squashed instructions issued (Count)
system.cpu.squashedInstsExamined              9643831                       # Number of squashed instructions iterated over during squash; mainly for profiling (Count)
system.cpu.squashedOperandsExamined          11459688                       # Number of squashed operands that are examined and possibly removed from graph (Count)
system.cpu.squashedNonSpecRemoved                  35                       # Number of squashed non-spec instructions that were removed (Count)
system.cpu.numIssuedDist::samples            17213354                       # Number of insts issued each cycle (Count)
system.cpu.numIssuedDist::mean               2.820921                       # Number of insts issued each cycle (Count)
system.cpu.numIssuedDist::stdev              1.863482                       # Number of insts issued each cycle (Count)
system.cpu.numIssuedDist::underflows                0      0.00%      0.00% # Number of insts issued each cycle (Count)
system.cpu.numIssuedDist::0                   3073938     17.86%     17.86% # Number of insts issued each cycle (Count)
system.cpu.numIssuedDist::1                   1629791      9.47%     27.33% # Number of insts issued each cycle (Count)
system.cpu.numIssuedDist::2                   2278635     13.24%     40.56% # Number of insts issued each cycle (Count)
system.cpu.numIssuedDist::3                   3414384     19.84%     60.40% # Number of insts issued each cycle (Count)
system.cpu.numIssuedDist::4                   3187741     18.52%     78.92% # Number of insts issued each cycle (Count)
system.cpu.numIssuedDist::5                   2396847     13.92%     92.84% # Number of insts issued each cycle (Count)
system.cpu.numIssuedDist::6                   1232018      7.16%    100.00% # Number of insts issued each cycle (Count)
system.cpu.numIssuedDist::overflows                 0      0.00%    100.00% # Number of insts issued each cycle (Count)
system.cpu.numIssuedDist::min_value                 0                       # Number of insts issued each cycle (Count)
system.cpu.numIssuedDist::max_value                 6                       # Number of insts issued each cycle (Count)
system.cpu.numIssuedDist::total              17213354                       # Number of insts issued each cycle (Count)
system.cpu.statFuBusy::No_OpClass                   0      0.00%      0.00% # attempts to use FU when none available (Count)
system.cpu.statFuBusy::IntAlu                       0      0.00%      0.00% # attempts to use FU when none available (Count)
system.cpu.statFuBusy::IntMult                      0      0.00%      0.00% # attempts to use FU when none available (Count)
system.cpu.statFuBusy::IntDiv                       0      0.00%      0.00% # attempts to use FU when none available (Count)
system.cpu.statFuBusy::FloatAdd                     0      0.00%      0.00% # attempts to use FU when none available (Count)
system.cpu.statFuBusy::FloatCmp                     0      0.00%      0.00% # attempts to use FU when none available (Count)
system.cpu.statFuBusy::FloatCvt                     0      0.00%      0.00% # attempts to use FU when none available (Count)
system.cpu.statFuBusy::FloatMult                    0      0.00%      0.00% # attempts to use FU when none available (Count)
system.cpu.statFuBusy::FloatMultAcc                 0      0.00%      0.00% # attempts to use FU when none available (Count)
system.cpu.statFuBusy::FloatDiv                     0      0.00%      0.00% # attempts to use FU when none available (Count)
system.cpu.statFuBusy::FloatMisc                    0      0.00%      0.00% # attempts to use FU when none available (Count)
system.cpu.statFuBusy::FloatSqrt                    0      0.00%      0.00% # attempts to use FU when none available (Count)
system.cpu.statFuBusy::SimdAdd                      0      0.00%      0.00% # attempts to use FU when none available (Count)
system.cpu.statFuBusy::SimdAddAcc                   0      0.00%      0.00% # attempts to use FU when none available (Count)
system.cpu.statFuBusy::SimdAlu                     20      0.02%      0.02% # attempts to use FU when none available (Count)
system.cpu.statFuBusy::SimdCmp                      0      0.00%      0.02% # attempts to use FU when none available (Count)
system.cpu.statFuBusy::SimdCvt                      0      0.00%      0.02% # attempts to use FU when none available (Count)
system.cpu.statFuBusy::SimdMisc                     2      0.00%      0.02% # attempts to use FU when none available (Count)
system.cpu.statFuBusy::SimdMult                     0      0.00%      0.02% # attempts to use FU when none available (Count)
system.cpu.statFuBusy::SimdMultAcc                  0      0.00%      0.02% # attempts to use FU when none available (Count)
system.cpu.statFuBusy::SimdShift                    0      0.00%      0.02% # attempts to use FU when none available (Count)
system.cpu.statFuBusy::SimdShiftAcc                 0      0.00%      0.02% # attempts to use FU when none available (Count)
system.cpu.statFuBusy::SimdDiv                      0      0.00%      0.02% # attempts to use FU when none available (Count)
system.cpu.statFuBusy::SimdSqrt                     0      0.00%      0.02% # attempts to use FU when none available (Count)
system.cpu.statFuBusy::SimdFloatAdd                 0      0.00%      0.02% # attempts to use FU when none available (Count)
system.cpu.statFuBusy::SimdFloatAlu                 0      0.00%      0.02% # attempts to use FU when none available (Count)
system.cpu.statFuBusy::SimdFloatCmp                 0      0.00%      0.02% # attempts to use FU when none available (Count)
system.cpu.statFuBusy::SimdFloatCvt                 0      0.00%      0.02% # attempts to use FU when none available (Count)
system.cpu.statFuBusy::SimdFloatDiv                 0      0.00%      0.02% # attempts to use FU when none available (Count)
system.cpu.statFuBusy::SimdFloatMisc                0      0.00%      0.02% # attempts to use FU when none available (Count)
system.cpu.statFuBusy::SimdFloatMult                0      0.00%      0.02% # attempts to use FU when none available (Count)
system.cpu.statFuBusy::SimdFloatMultAcc             0      0.00%      0.02% # attempts to use FU when none available (Count)
system.cpu.statFuBusy::SimdFloatSqrt                0      0.00%      0.02% # attempts to use FU when none available (Count)
system.cpu.statFuBusy::SimdReduceAdd                0      0.00%      0.02% # attempts to use FU when none available (Count)
system.cpu.statFuBusy::SimdReduceAlu                0      0.00%      0.02% # attempts to use FU when none available (Count)
system.cpu.statFuBusy::SimdReduceCmp                0      0.00%      0.02% # attempts to use FU when none available (Count)
system.cpu.statFuBusy::SimdFloatReduceAdd            0      0.00%      0.02% # attempts to use FU when none available (Count)
system.cpu.statFuBusy::SimdFloatReduceCmp            0      0.00%      0.02% # attempts to use FU when none available (Count)
system.cpu.statFuBusy::SimdAes                      0      0.00%      0.02% # attempts to use FU when none available (Count)
system.cpu.statFuBusy::SimdAesMix                   0      0.00%      0.02% # attempts to use FU when none available (Count)
system.cpu.statFuBusy::SimdSha1Hash                 0      0.00%      0.02% # attempts to use FU when none available (Count)
system.cpu.statFuBusy::SimdSha1Hash2                0      0.00%      0.02% # attempts to use FU when none available (Count)
system.cpu.statFuBusy::SimdSha256Hash               0      0.00%      0.02% # attempts to use FU when none available (Count)
system.cpu.statFuBusy::SimdSha256Hash2              0      0.00%      0.02% # attempts to use FU when none available (Count)
system.cpu.statFuBusy::SimdShaSigma2                0      0.00%      0.02% # attempts to use FU when none available (Count)
system.cpu.statFuBusy::SimdShaSigma3                0      0.00%      0.02% # attempts to use FU when none available (Count)
system.cpu.statFuBusy::SimdPredAlu                  0      0.00%      0.02% # attempts to use FU when none available (Count)
system.cpu.statFuBusy::MemRead                  94463     99.95%     99.97% # attempts to use FU when none available (Count)
system.cpu.statFuBusy::MemWrite                    17      0.02%     99.99% # attempts to use FU when none available (Count)
system.cpu.statFuBusy::FloatMemRead                 3      0.00%    100.00% # attempts to use FU when none available (Count)
system.cpu.statFuBusy::FloatMemWrite                4      0.00%    100.00% # attempts to use FU when none available (Count)
system.cpu.statFuBusy::IprAccess                    0      0.00%    100.00% # attempts to use FU when none available (Count)
system.cpu.statFuBusy::InstPrefetch                 0      0.00%    100.00% # attempts to use FU when none available (Count)
system.cpu.statIssuedInstType_0::No_OpClass          955      0.00%      0.00% # Number of instructions issued per FU type, per thread (Count)
system.cpu.statIssuedInstType_0::IntAlu      28588040     58.87%     58.88% # Number of instructions issued per FU type, per thread (Count)
system.cpu.statIssuedInstType_0::IntMult        15125      0.03%     58.91% # Number of instructions issued per FU type, per thread (Count)
system.cpu.statIssuedInstType_0::IntDiv            92      0.00%     58.91% # Number of instructions issued per FU type, per thread (Count)
system.cpu.statIssuedInstType_0::FloatAdd           29      0.00%     58.91% # Number of instructions issued per FU type, per thread (Count)
system.cpu.statIssuedInstType_0::FloatCmp            0      0.00%     58.91% # Number of instructions issued per FU type, per thread (Count)
system.cpu.statIssuedInstType_0::FloatCvt           16      0.00%     58.91% # Number of instructions issued per FU type, per thread (Count)
system.cpu.statIssuedInstType_0::FloatMult            0      0.00%     58.91% # Number of instructions issued per FU type, per thread (Count)
system.cpu.statIssuedInstType_0::FloatMultAcc            0      0.00%     58.91% # Number of instructions issued per FU type, per thread (Count)
system.cpu.statIssuedInstType_0::FloatDiv            0      0.00%     58.91% # Number of instructions issued per FU type, per thread (Count)
system.cpu.statIssuedInstType_0::FloatMisc            0      0.00%     58.91% # Number of instructions issued per FU type, per thread (Count)
system.cpu.statIssuedInstType_0::FloatSqrt            0      0.00%     58.91% # Number of instructions issued per FU type, per thread (Count)
system.cpu.statIssuedInstType_0::SimdAdd            4      0.00%     58.91% # Number of instructions issued per FU type, per thread (Count)
system.cpu.statIssuedInstType_0::SimdAddAcc            0      0.00%     58.91% # Number of instructions issued per FU type, per thread (Count)
system.cpu.statIssuedInstType_0::SimdAlu           86      0.00%     58.91% # Number of instructions issued per FU type, per thread (Count)
system.cpu.statIssuedInstType_0::SimdCmp            0      0.00%     58.91% # Number of instructions issued per FU type, per thread (Count)
system.cpu.statIssuedInstType_0::SimdCvt           88      0.00%     58.91% # Number of instructions issued per FU type, per thread (Count)
system.cpu.statIssuedInstType_0::SimdMisc          191      0.00%     58.91% # Number of instructions issued per FU type, per thread (Count)
system.cpu.statIssuedInstType_0::SimdMult            0      0.00%     58.91% # Number of instructions issued per FU type, per thread (Count)
system.cpu.statIssuedInstType_0::SimdMultAcc            0      0.00%     58.91% # Number of instructions issued per FU type, per thread (Count)
system.cpu.statIssuedInstType_0::SimdShift            0      0.00%     58.91% # Number of instructions issued per FU type, per thread (Count)
system.cpu.statIssuedInstType_0::SimdShiftAcc            0      0.00%     58.91% # Number of instructions issued per FU type, per thread (Count)
system.cpu.statIssuedInstType_0::SimdDiv            0      0.00%     58.91% # Number of instructions issued per FU type, per thread (Count)
system.cpu.statIssuedInstType_0::SimdSqrt            0      0.00%     58.91% # Number of instructions issued per FU type, per thread (Count)
system.cpu.statIssuedInstType_0::SimdFloatAdd            0      0.00%     58.91% # Number of instructions issued per FU type, per thread (Count)
system.cpu.statIssuedInstType_0::SimdFloatAlu            0      0.00%     58.91% # Number of instructions issued per FU type, per thread (Count)
system.cpu.statIssuedInstType_0::SimdFloatCmp            0      0.00%     58.91% # Number of instructions issued per FU type, per thread (Count)
system.cpu.statIssuedInstType_0::SimdFloatCvt            0      0.00%     58.91% # Number of instructions issued per FU type, per thread (Count)
system.cpu.statIssuedInstType_0::SimdFloatDiv            0      0.00%     58.91% # Number of instructions issued per FU type, per thread (Count)
system.cpu.statIssuedInstType_0::SimdFloatMisc            0      0.00%     58.91% # Number of instructions issued per FU type, per thread (Count)
system.cpu.statIssuedInstType_0::SimdFloatMult            0      0.00%     58.91% # Number of instructions issued per FU type, per thread (Count)
system.cpu.statIssuedInstType_0::SimdFloatMultAcc            0      0.00%     58.91% # Number of instructions issued per FU type, per thread (Count)
system.cpu.statIssuedInstType_0::SimdFloatSqrt            0      0.00%     58.91% # Number of instructions issued per FU type, per thread (Count)
system.cpu.statIssuedInstType_0::SimdReduceAdd            0      0.00%     58.91% # Number of instructions issued per FU type, per thread (Count)
system.cpu.statIssuedInstType_0::SimdReduceAlu            0      0.00%     58.91% # Number of instructions issued per FU type, per thread (Count)
system.cpu.statIssuedInstType_0::SimdReduceCmp            0      0.00%     58.91% # Number of instructions issued per FU type, per thread (Count)
system.cpu.statIssuedInstType_0::SimdFloatReduceAdd            0      0.00%     58.91% # Number of instructions issued per FU type, per thread (Count)
system.cpu.statIssuedInstType_0::SimdFloatReduceCmp            0      0.00%     58.91% # Number of instructions issued per FU type, per thread (Count)
system.cpu.statIssuedInstType_0::SimdAes            0      0.00%     58.91% # Number of instructions issued per FU type, per thread (Count)
system.cpu.statIssuedInstType_0::SimdAesMix            0      0.00%     58.91% # Number of instructions issued per FU type, per thread (Count)
system.cpu.statIssuedInstType_0::SimdSha1Hash            0      0.00%     58.91% # Number of instructions issued per FU type, per thread (Count)
system.cpu.statIssuedInstType_0::SimdSha1Hash2            0      0.00%     58.91% # Number of instructions issued per FU type, per thread (Count)
system.cpu.statIssuedInstType_0::SimdSha256Hash            0      0.00%     58.91% # Number of instructions issued per FU type, per thread (Count)
system.cpu.statIssuedInstType_0::SimdSha256Hash2            0      0.00%     58.91% # Number of instructions issued per FU type, per thread (Count)
system.cpu.statIssuedInstType_0::SimdShaSigma2            0      0.00%     58.91% # Number of instructions issued per FU type, per thread (Count)
system.cpu.statIssuedInstType_0::SimdShaSigma3            0      0.00%     58.91% # Number of instructions issued per FU type, per thread (Count)
system.cpu.statIssuedInstType_0::SimdPredAlu            0      0.00%     58.91% # Number of instructions issued per FU type, per thread (Count)
system.cpu.statIssuedInstType_0::MemRead     16077636     33.11%     92.02% # Number of instructions issued per FU type, per thread (Count)
system.cpu.statIssuedInstType_0::MemWrite      3875012      7.98%    100.00% # Number of instructions issued per FU type, per thread (Count)
system.cpu.statIssuedInstType_0::FloatMemRead          140      0.00%    100.00% # Number of instructions issued per FU type, per thread (Count)
system.cpu.statIssuedInstType_0::FloatMemWrite          106      0.00%    100.00% # Number of instructions issued per FU type, per thread (Count)
system.cpu.statIssuedInstType_0::IprAccess            0      0.00%    100.00% # Number of instructions issued per FU type, per thread (Count)
system.cpu.statIssuedInstType_0::InstPrefetch            0      0.00%    100.00% # Number of instructions issued per FU type, per thread (Count)
system.cpu.statIssuedInstType_0::total       48557520                       # Number of instructions issued per FU type, per thread (Count)
system.cpu.issueRate                         2.816623                       # Inst issue rate ((Count/Cycle))
system.cpu.fuBusy                               94509                       # FU busy when requested (Count)
system.cpu.fuBusyRate                        0.001946                       # FU busy rate (busy events/executed inst) ((Count/Count))
system.cpu.intInstQueueReads                114426062                       # Number of integer instruction queue reads (Count)
system.cpu.intInstQueueWrites                60233460                       # Number of integer instruction queue writes (Count)
system.cpu.intInstQueueWakeupAccesses        47595531                       # Number of integer instruction queue wakeup accesses (Count)
system.cpu.fpInstQueueReads                      1471                       # Number of floating instruction queue reads (Count)
system.cpu.fpInstQueueWrites                      858                       # Number of floating instruction queue writes (Count)
system.cpu.fpInstQueueWakeupAccesses              689                       # Number of floating instruction queue wakeup accesses (Count)
system.cpu.vecInstQueueReads                        0                       # Number of vector instruction queue reads (Count)
system.cpu.vecInstQueueWrites                       0                       # Number of vector instruction queue writes (Count)
system.cpu.vecInstQueueWakeupAccesses               0                       # Number of vector instruction queue wakeup accesses (Count)
system.cpu.intAluAccesses                    48650324                       # Number of integer alu accesses (Count)
system.cpu.fpAluAccesses                          750                       # Number of floating point alu accesses (Count)
system.cpu.vecAluAccesses                           0                       # Number of vector alu accesses (Count)
system.cpu.numInsts                          47951227                       # Number of executed instructions (Count)
system.cpu.numLoadInsts                      15767902                       # Number of load instructions executed (Count)
system.cpu.numSquashedInsts                    606294                       # Number of squashed instructions skipped in execute (Count)
system.cpu.numSwp                                   0                       # Number of swp insts executed (Count)
system.cpu.numNop                                   0                       # Number of nop insts executed (Count)
system.cpu.numRefs                           19581630                       # Number of memory reference insts executed (Count)
system.cpu.numBranches                        2709546                       # Number of branches executed (Count)
system.cpu.numStoreInsts                      3813728                       # Number of stores executed (Count)
system.cpu.numRate                           2.781455                       # Inst execution rate ((Count/Cycle))
system.cpu.timesIdled                             644                       # Number of times that the entire CPU went into an idle state and unscheduled itself (Count)
system.cpu.idleCycles                           26269                       # Total number of cycles that the CPU has spent unscheduled due to idling (Cycle)
system.cpu.committedInsts                    26871651                       # Number of Instructions Simulated (Count)
system.cpu.committedOps                      40946462                       # Number of Ops (including micro ops) Simulated (Count)
system.cpu.cpi                               0.641554                       # CPI: Cycles Per Instruction ((Cycle/Count))
system.cpu.totalCpi                          0.641554                       # CPI: Total CPI of All Threads ((Cycle/Count))
system.cpu.ipc                               1.558715                       # IPC: Instructions Per Cycle ((Count/Cycle))
system.cpu.totalIpc                          1.558715                       # IPC: Total IPC of All Threads ((Count/Cycle))
system.cpu.intRegfileReads                   49566298                       # Number of integer regfile reads (Count)
system.cpu.intRegfileWrites                  38602341                       # Number of integer regfile writes (Count)
system.cpu.fpRegfileReads                        1051                       # Number of floating regfile reads (Count)
system.cpu.fpRegfileWrites                        529                       # Number of floating regfile writes (Count)
system.cpu.ccRegfileReads                    13469691                       # number of cc regfile reads (Count)
system.cpu.ccRegfileWrites                   14480671                       # number of cc regfile writes (Count)
system.cpu.miscRegfileReads                  26933140                       # number of misc regfile reads (Count)
system.cpu.miscRegfileWrites                        9                       # number of misc regfile writes (Count)
system.cpu.MemDepUnit__0.insertedLoads       16691435                       # Number of loads inserted to the mem dependence unit. (Count)
system.cpu.MemDepUnit__0.insertedStores       4095119                       # Number of stores inserted to the mem dependence unit. (Count)
system.cpu.MemDepUnit__0.conflictingLoads      4352437                       # Number of conflicting loads. (Count)
system.cpu.MemDepUnit__0.conflictingStores        18111                       # Number of conflicting stores. (Count)
system.cpu.MemDepUnit__1.insertedLoads              0                       # Number of loads inserted to the mem dependence unit. (Count)
system.cpu.MemDepUnit__1.insertedStores             0                       # Number of stores inserted to the mem dependence unit. (Count)
system.cpu.MemDepUnit__1.conflictingLoads            0                       # Number of conflicting loads. (Count)
system.cpu.MemDepUnit__1.conflictingStores            0                       # Number of conflicting stores. (Count)
system.cpu.MemDepUnit__2.insertedLoads              0                       # Number of loads inserted to the mem dependence unit. (Count)
system.cpu.MemDepUnit__2.insertedStores             0                       # Number of stores inserted to the mem dependence unit. (Count)
system.cpu.MemDepUnit__2.conflictingLoads            0                       # Number of conflicting loads. (Count)
system.cpu.MemDepUnit__2.conflictingStores            0                       # Number of conflicting stores. (Count)
system.cpu.MemDepUnit__3.insertedLoads              0                       # Number of loads inserted to the mem dependence unit. (Count)
system.cpu.MemDepUnit__3.insertedStores             0                       # Number of stores inserted to the mem dependence unit. (Count)
system.cpu.MemDepUnit__3.conflictingLoads            0                       # Number of conflicting loads. (Count)
system.cpu.MemDepUnit__3.conflictingStores            0                       # Number of conflicting stores. (Count)
system.cpu.branchPred.lookups                 3365370                       # Number of BP lookups (Count)
system.cpu.branchPred.condPredicted           3331947                       # Number of conditional branches predicted (Count)
system.cpu.branchPred.condIncorrect            301494                       # Number of conditional branches incorrect (Count)
system.cpu.branchPred.BTBLookups              2517720                       # Number of BTB lookups (Count)
system.cpu.branchPred.BTBHits                 2517439                       # Number of BTB hits (Count)
system.cpu.branchPred.BTBHitRatio            0.999888                       # BTB Hit Ratio (Ratio)
system.cpu.branchPred.RASUsed                    5511                       # Number of times the RAS was used to get a target. (Count)
system.cpu.branchPred.RASIncorrect                  3                       # Number of incorrect RAS predictions. (Count)
system.cpu.branchPred.indirectLookups            4913                       # Number of indirect predictor lookups. (Count)
system.cpu.branchPred.indirectHits                114                       # Number of indirect target hits. (Count)
system.cpu.branchPred.indirectMisses             4799                       # Number of indirect misses. (Count)
system.cpu.branchPred.indirectMispredicted           51                       # Number of mispredicted indirect branches. (Count)
system.cpu.commit.commitSquashedInsts         9643391                       # The number of squashed insts skipped by commit (Count)
system.cpu.commit.commitNonSpecStalls              10                       # The number of times commit has been forced to stall to communicate backwards (Count)
system.cpu.commit.branchMispredicts            301607                       # The number of times a branch was mispredicted (Count)
system.cpu.commit.numCommittedDist::samples     15925609                       # Number of insts commited each cycle (Count)
system.cpu.commit.numCommittedDist::mean     2.571108                       # Number of insts commited each cycle (Count)
system.cpu.commit.numCommittedDist::stdev     2.374508                       # Number of insts commited each cycle (Count)
system.cpu.commit.numCommittedDist::underflows            0      0.00%      0.00% # Number of insts commited each cycle (Count)
system.cpu.commit.numCommittedDist::0         4912327     30.85%     30.85% # Number of insts commited each cycle (Count)
system.cpu.commit.numCommittedDist::1         2687764     16.88%     47.72% # Number of insts commited each cycle (Count)
system.cpu.commit.numCommittedDist::2          397138      2.49%     50.22% # Number of insts commited each cycle (Count)
system.cpu.commit.numCommittedDist::3         2641347     16.59%     66.80% # Number of insts commited each cycle (Count)
system.cpu.commit.numCommittedDist::4          344658      2.16%     68.97% # Number of insts commited each cycle (Count)
system.cpu.commit.numCommittedDist::5         1492501      9.37%     78.34% # Number of insts commited each cycle (Count)
system.cpu.commit.numCommittedDist::6         3449874     21.66%    100.00% # Number of insts commited each cycle (Count)
system.cpu.commit.numCommittedDist::overflows            0      0.00%    100.00% # Number of insts commited each cycle (Count)
system.cpu.commit.numCommittedDist::min_value            0                       # Number of insts commited each cycle (Count)
system.cpu.commit.numCommittedDist::max_value            6                       # Number of insts commited each cycle (Count)
system.cpu.commit.numCommittedDist::total     15925609                       # Number of insts commited each cycle (Count)
system.cpu.commit.instsCommitted             26871651                       # Number of instructions committed (Count)
system.cpu.commit.opsCommitted               40946462                       # Number of ops (including micro ops) committed (Count)
system.cpu.commit.memRefs                    16555533                       # Number of memory references committed (Count)
system.cpu.commit.loads                      13339506                       # Number of loads committed (Count)
system.cpu.commit.amos                              0                       # Number of atomic instructions committed (Count)
system.cpu.commit.membars                           0                       # Number of memory barriers committed (Count)
system.cpu.commit.branches                    2557251                       # Number of branches committed (Count)
system.cpu.commit.vectorInstructions                0                       # Number of committed Vector instructions. (Count)
system.cpu.commit.floating                        616                       # Number of committed floating point instructions. (Count)
system.cpu.commit.integer                    40945640                       # Number of committed integer instructions. (Count)
system.cpu.commit.functionCalls                  5222                       # Number of function calls committed. (Count)
system.cpu.commit.committedInstType_0::No_OpClass          296      0.00%      0.00% # Class of committed instruction (Count)
system.cpu.commit.committedInstType_0::IntAlu     24375094     59.53%     59.53% # Class of committed instruction (Count)
system.cpu.commit.committedInstType_0::IntMult        15050      0.04%     59.57% # Class of committed instruction (Count)
system.cpu.commit.committedInstType_0::IntDiv           85      0.00%     59.57% # Class of committed instruction (Count)
system.cpu.commit.committedInstType_0::FloatAdd           28      0.00%     59.57% # Class of committed instruction (Count)
system.cpu.commit.committedInstType_0::FloatCmp            0      0.00%     59.57% # Class of committed instruction (Count)
system.cpu.commit.committedInstType_0::FloatCvt           16      0.00%     59.57% # Class of committed instruction (Count)
system.cpu.commit.committedInstType_0::FloatMult            0      0.00%     59.57% # Class of committed instruction (Count)
system.cpu.commit.committedInstType_0::FloatMultAcc            0      0.00%     59.57% # Class of committed instruction (Count)
system.cpu.commit.committedInstType_0::FloatDiv            0      0.00%     59.57% # Class of committed instruction (Count)
system.cpu.commit.committedInstType_0::FloatMisc            0      0.00%     59.57% # Class of committed instruction (Count)
system.cpu.commit.committedInstType_0::FloatSqrt            0      0.00%     59.57% # Class of committed instruction (Count)
system.cpu.commit.committedInstType_0::SimdAdd            4      0.00%     59.57% # Class of committed instruction (Count)
system.cpu.commit.committedInstType_0::SimdAddAcc            0      0.00%     59.57% # Class of committed instruction (Count)
system.cpu.commit.committedInstType_0::SimdAlu           84      0.00%     59.57% # Class of committed instruction (Count)
system.cpu.commit.committedInstType_0::SimdCmp            0      0.00%     59.57% # Class of committed instruction (Count)
system.cpu.commit.committedInstType_0::SimdCvt           88      0.00%     59.57% # Class of committed instruction (Count)
system.cpu.commit.committedInstType_0::SimdMisc          184      0.00%     59.57% # Class of committed instruction (Count)
system.cpu.commit.committedInstType_0::SimdMult            0      0.00%     59.57% # Class of committed instruction (Count)
system.cpu.commit.committedInstType_0::SimdMultAcc            0      0.00%     59.57% # Class of committed instruction (Count)
system.cpu.commit.committedInstType_0::SimdShift            0      0.00%     59.57% # Class of committed instruction (Count)
system.cpu.commit.committedInstType_0::SimdShiftAcc            0      0.00%     59.57% # Class of committed instruction (Count)
system.cpu.commit.committedInstType_0::SimdDiv            0      0.00%     59.57% # Class of committed instruction (Count)
system.cpu.commit.committedInstType_0::SimdSqrt            0      0.00%     59.57% # Class of committed instruction (Count)
system.cpu.commit.committedInstType_0::SimdFloatAdd            0      0.00%     59.57% # Class of committed instruction (Count)
system.cpu.commit.committedInstType_0::SimdFloatAlu            0      0.00%     59.57% # Class of committed instruction (Count)
system.cpu.commit.committedInstType_0::SimdFloatCmp            0      0.00%     59.57% # Class of committed instruction (Count)
system.cpu.commit.committedInstType_0::SimdFloatCvt            0      0.00%     59.57% # Class of committed instruction (Count)
system.cpu.commit.committedInstType_0::SimdFloatDiv            0      0.00%     59.57% # Class of committed instruction (Count)
system.cpu.commit.committedInstType_0::SimdFloatMisc            0      0.00%     59.57% # Class of committed instruction (Count)
system.cpu.commit.committedInstType_0::SimdFloatMult            0      0.00%     59.57% # Class of committed instruction (Count)
system.cpu.commit.committedInstType_0::SimdFloatMultAcc            0      0.00%     59.57% # Class of committed instruction (Count)
system.cpu.commit.committedInstType_0::SimdFloatSqrt            0      0.00%     59.57% # Class of committed instruction (Count)
system.cpu.commit.committedInstType_0::SimdReduceAdd            0      0.00%     59.57% # Class of committed instruction (Count)
system.cpu.commit.committedInstType_0::SimdReduceAlu            0      0.00%     59.57% # Class of committed instruction (Count)
system.cpu.commit.committedInstType_0::SimdReduceCmp            0      0.00%     59.57% # Class of committed instruction (Count)
system.cpu.commit.committedInstType_0::SimdFloatReduceAdd            0      0.00%     59.57% # Class of committed instruction (Count)
system.cpu.commit.committedInstType_0::SimdFloatReduceCmp            0      0.00%     59.57% # Class of committed instruction (Count)
system.cpu.commit.committedInstType_0::SimdAes            0      0.00%     59.57% # Class of committed instruction (Count)
system.cpu.commit.committedInstType_0::SimdAesMix            0      0.00%     59.57% # Class of committed instruction (Count)
system.cpu.commit.committedInstType_0::SimdSha1Hash            0      0.00%     59.57% # Class of committed instruction (Count)
system.cpu.commit.committedInstType_0::SimdSha1Hash2            0      0.00%     59.57% # Class of committed instruction (Count)
system.cpu.commit.committedInstType_0::SimdSha256Hash            0      0.00%     59.57% # Class of committed instruction (Count)
system.cpu.commit.committedInstType_0::SimdSha256Hash2            0      0.00%     59.57% # Class of committed instruction (Count)
system.cpu.commit.committedInstType_0::SimdShaSigma2            0      0.00%     59.57% # Class of committed instruction (Count)
system.cpu.commit.committedInstType_0::SimdShaSigma3            0      0.00%     59.57% # Class of committed instruction (Count)
system.cpu.commit.committedInstType_0::SimdPredAlu            0      0.00%     59.57% # Class of committed instruction (Count)
system.cpu.commit.committedInstType_0::MemRead     13339406     32.58%     92.15% # Class of committed instruction (Count)
system.cpu.commit.committedInstType_0::MemWrite      3215975      7.85%    100.00% # Class of committed instruction (Count)
system.cpu.commit.committedInstType_0::FloatMemRead          100      0.00%    100.00% # Class of committed instruction (Count)
system.cpu.commit.committedInstType_0::FloatMemWrite           52      0.00%    100.00% # Class of committed instruction (Count)
system.cpu.commit.committedInstType_0::IprAccess            0      0.00%    100.00% # Class of committed instruction (Count)
system.cpu.commit.committedInstType_0::InstPrefetch            0      0.00%    100.00% # Class of committed instruction (Count)
system.cpu.commit.committedInstType_0::total     40946462                       # Class of committed instruction (Count)
system.cpu.commit.commitEligibleSamples       3449874                       # number cycles where commit BW limit reached (Cycle)
system.cpu.dcache.demandHits::cpu.data        8957001                       # number of demand (read+write) hits (Count)
system.cpu.dcache.demandHits::total           8957001                       # number of demand (read+write) hits (Count)
system.cpu.dcache.overallHits::cpu.data       8957001                       # number of overall hits (Count)
system.cpu.dcache.overallHits::total          8957001                       # number of overall hits (Count)
system.cpu.dcache.demandMisses::cpu.data         5797                       # number of demand (read+write) misses (Count)
system.cpu.dcache.demandMisses::total            5797                       # number of demand (read+write) misses (Count)
system.cpu.dcache.overallMisses::cpu.data         5797                       # number of overall misses (Count)
system.cpu.dcache.overallMisses::total           5797                       # number of overall misses (Count)
system.cpu.dcache.demandMissLatency::cpu.data    346126000                       # number of demand (read+write) miss ticks (Tick)
system.cpu.dcache.demandMissLatency::total    346126000                       # number of demand (read+write) miss ticks (Tick)
system.cpu.dcache.overallMissLatency::cpu.data    346126000                       # number of overall miss ticks (Tick)
system.cpu.dcache.overallMissLatency::total    346126000                       # number of overall miss ticks (Tick)
system.cpu.dcache.demandAccesses::cpu.data      8962798                       # number of demand (read+write) accesses (Count)
system.cpu.dcache.demandAccesses::total       8962798                       # number of demand (read+write) accesses (Count)
system.cpu.dcache.overallAccesses::cpu.data      8962798                       # number of overall (read+write) accesses (Count)
system.cpu.dcache.overallAccesses::total      8962798                       # number of overall (read+write) accesses (Count)
system.cpu.dcache.demandMissRate::cpu.data     0.000647                       # miss rate for demand accesses (Ratio)
system.cpu.dcache.demandMissRate::total      0.000647                       # miss rate for demand accesses (Ratio)
system.cpu.dcache.overallMissRate::cpu.data     0.000647                       # miss rate for overall accesses (Ratio)
system.cpu.dcache.overallMissRate::total     0.000647                       # miss rate for overall accesses (Ratio)
system.cpu.dcache.demandAvgMissLatency::cpu.data 59707.779886                       # average overall miss latency in ticks ((Tick/Count))
system.cpu.dcache.demandAvgMissLatency::total 59707.779886                       # average overall miss latency in ticks ((Tick/Count))
system.cpu.dcache.overallAvgMissLatency::cpu.data 59707.779886                       # average overall miss latency ((Tick/Count))
system.cpu.dcache.overallAvgMissLatency::total 59707.779886                       # average overall miss latency ((Tick/Count))
system.cpu.dcache.blockedCycles::no_mshrs          469                       # number of cycles access was blocked (Cycle)
system.cpu.dcache.blockedCycles::no_targets            0                       # number of cycles access was blocked (Cycle)
system.cpu.dcache.blockedCauses::no_mshrs           17                       # number of times access was blocked (Count)
system.cpu.dcache.blockedCauses::no_targets            0                       # number of times access was blocked (Count)
system.cpu.dcache.avgBlocked::no_mshrs      27.588235                       # average number of cycles each access was blocked ((Cycle/Count))
system.cpu.dcache.avgBlocked::no_targets          nan                       # average number of cycles each access was blocked ((Cycle/Count))
system.cpu.dcache.writebacks::writebacks          420                       # number of writebacks (Count)
system.cpu.dcache.writebacks::total               420                       # number of writebacks (Count)
system.cpu.dcache.demandMshrHits::cpu.data         3949                       # number of demand (read+write) MSHR hits (Count)
system.cpu.dcache.demandMshrHits::total          3949                       # number of demand (read+write) MSHR hits (Count)
system.cpu.dcache.overallMshrHits::cpu.data         3949                       # number of overall MSHR hits (Count)
system.cpu.dcache.overallMshrHits::total         3949                       # number of overall MSHR hits (Count)
system.cpu.dcache.demandMshrMisses::cpu.data         1848                       # number of demand (read+write) MSHR misses (Count)
system.cpu.dcache.demandMshrMisses::total         1848                       # number of demand (read+write) MSHR misses (Count)
system.cpu.dcache.overallMshrMisses::cpu.data         1848                       # number of overall MSHR misses (Count)
system.cpu.dcache.overallMshrMisses::total         1848                       # number of overall MSHR misses (Count)
system.cpu.dcache.demandMshrMissLatency::cpu.data    103312000                       # number of demand (read+write) MSHR miss ticks (Tick)
system.cpu.dcache.demandMshrMissLatency::total    103312000                       # number of demand (read+write) MSHR miss ticks (Tick)
system.cpu.dcache.overallMshrMissLatency::cpu.data    103312000                       # number of overall MSHR miss ticks (Tick)
system.cpu.dcache.overallMshrMissLatency::total    103312000                       # number of overall MSHR miss ticks (Tick)
system.cpu.dcache.demandMshrMissRate::cpu.data     0.000206                       # mshr miss ratio for demand accesses (Ratio)
system.cpu.dcache.demandMshrMissRate::total     0.000206                       # mshr miss ratio for demand accesses (Ratio)
system.cpu.dcache.overallMshrMissRate::cpu.data     0.000206                       # mshr miss ratio for overall accesses (Ratio)
system.cpu.dcache.overallMshrMissRate::total     0.000206                       # mshr miss ratio for overall accesses (Ratio)
system.cpu.dcache.demandAvgMshrMissLatency::cpu.data 55904.761905                       # average overall mshr miss latency ((Tick/Count))
system.cpu.dcache.demandAvgMshrMissLatency::total 55904.761905                       # average overall mshr miss latency ((Tick/Count))
system.cpu.dcache.overallAvgMshrMissLatency::cpu.data 55904.761905                       # average overall mshr miss latency ((Tick/Count))
system.cpu.dcache.overallAvgMshrMissLatency::total 55904.761905                       # average overall mshr miss latency ((Tick/Count))
system.cpu.dcache.replacements                   1847                       # number of replacements (Count)
system.cpu.dcache.ReadReq.hits::cpu.data      5741312                       # number of ReadReq hits (Count)
system.cpu.dcache.ReadReq.hits::total         5741312                       # number of ReadReq hits (Count)
system.cpu.dcache.ReadReq.misses::cpu.data         5459                       # number of ReadReq misses (Count)
system.cpu.dcache.ReadReq.misses::total          5459                       # number of ReadReq misses (Count)
system.cpu.dcache.ReadReq.missLatency::cpu.data    333728000                       # number of ReadReq miss ticks (Tick)
system.cpu.dcache.ReadReq.missLatency::total    333728000                       # number of ReadReq miss ticks (Tick)
system.cpu.dcache.ReadReq.accesses::cpu.data      5746771                       # number of ReadReq accesses(hits+misses) (Count)
system.cpu.dcache.ReadReq.accesses::total      5746771                       # number of ReadReq accesses(hits+misses) (Count)
system.cpu.dcache.ReadReq.missRate::cpu.data     0.000950                       # miss rate for ReadReq accesses (Ratio)
system.cpu.dcache.ReadReq.missRate::total     0.000950                       # miss rate for ReadReq accesses (Ratio)
system.cpu.dcache.ReadReq.avgMissLatency::cpu.data 61133.540942                       # average ReadReq miss latency ((Tick/Count))
system.cpu.dcache.ReadReq.avgMissLatency::total 61133.540942                       # average ReadReq miss latency ((Tick/Count))
system.cpu.dcache.ReadReq.mshrHits::cpu.data         3938                       # number of ReadReq MSHR hits (Count)
system.cpu.dcache.ReadReq.mshrHits::total         3938                       # number of ReadReq MSHR hits (Count)
system.cpu.dcache.ReadReq.mshrMisses::cpu.data         1521                       # number of ReadReq MSHR misses (Count)
system.cpu.dcache.ReadReq.mshrMisses::total         1521                       # number of ReadReq MSHR misses (Count)
system.cpu.dcache.ReadReq.mshrMissLatency::cpu.data     91428500                       # number of ReadReq MSHR miss ticks (Tick)
system.cpu.dcache.ReadReq.mshrMissLatency::total     91428500                       # number of ReadReq MSHR miss ticks (Tick)
system.cpu.dcache.ReadReq.mshrMissRate::cpu.data     0.000265                       # mshr miss rate for ReadReq accesses (Ratio)
system.cpu.dcache.ReadReq.mshrMissRate::total     0.000265                       # mshr miss rate for ReadReq accesses (Ratio)
system.cpu.dcache.ReadReq.avgMshrMissLatency::cpu.data 60110.782380                       # average ReadReq mshr miss latency ((Tick/Count))
system.cpu.dcache.ReadReq.avgMshrMissLatency::total 60110.782380                       # average ReadReq mshr miss latency ((Tick/Count))
system.cpu.dcache.WriteReq.hits::cpu.data      3215689                       # number of WriteReq hits (Count)
system.cpu.dcache.WriteReq.hits::total        3215689                       # number of WriteReq hits (Count)
system.cpu.dcache.WriteReq.misses::cpu.data          338                       # number of WriteReq misses (Count)
system.cpu.dcache.WriteReq.misses::total          338                       # number of WriteReq misses (Count)
system.cpu.dcache.WriteReq.missLatency::cpu.data     12398000                       # number of WriteReq miss ticks (Tick)
system.cpu.dcache.WriteReq.missLatency::total     12398000                       # number of WriteReq miss ticks (Tick)
system.cpu.dcache.WriteReq.accesses::cpu.data      3216027                       # number of WriteReq accesses(hits+misses) (Count)
system.cpu.dcache.WriteReq.accesses::total      3216027                       # number of WriteReq accesses(hits+misses) (Count)
system.cpu.dcache.WriteReq.missRate::cpu.data     0.000105                       # miss rate for WriteReq accesses (Ratio)
system.cpu.dcache.WriteReq.missRate::total     0.000105                       # miss rate for WriteReq accesses (Ratio)
system.cpu.dcache.WriteReq.avgMissLatency::cpu.data 36680.473373                       # average WriteReq miss latency ((Tick/Count))
system.cpu.dcache.WriteReq.avgMissLatency::total 36680.473373                       # average WriteReq miss latency ((Tick/Count))
system.cpu.dcache.WriteReq.mshrHits::cpu.data           11                       # number of WriteReq MSHR hits (Count)
system.cpu.dcache.WriteReq.mshrHits::total           11                       # number of WriteReq MSHR hits (Count)
system.cpu.dcache.WriteReq.mshrMisses::cpu.data          327                       # number of WriteReq MSHR misses (Count)
system.cpu.dcache.WriteReq.mshrMisses::total          327                       # number of WriteReq MSHR misses (Count)
system.cpu.dcache.WriteReq.mshrMissLatency::cpu.data     11883500                       # number of WriteReq MSHR miss ticks (Tick)
system.cpu.dcache.WriteReq.mshrMissLatency::total     11883500                       # number of WriteReq MSHR miss ticks (Tick)
system.cpu.dcache.WriteReq.mshrMissRate::cpu.data     0.000102                       # mshr miss rate for WriteReq accesses (Ratio)
system.cpu.dcache.WriteReq.mshrMissRate::total     0.000102                       # mshr miss rate for WriteReq accesses (Ratio)
system.cpu.dcache.WriteReq.avgMshrMissLatency::cpu.data 36340.978593                       # average WriteReq mshr miss latency ((Tick/Count))
system.cpu.dcache.WriteReq.avgMshrMissLatency::total 36340.978593                       # average WriteReq mshr miss latency ((Tick/Count))
system.cpu.dcache.power_state.pwrStateResidencyTicks::UNDEFINED   8796029000                       # Cumulative time (in ticks) in various power states (Tick)
system.cpu.dcache.tags.tagsInUse                   64                       # Average ticks per tags in use ((Tick/Count))
system.cpu.dcache.tags.totalRefs              7153330                       # Total number of references to valid blocks. (Count)
system.cpu.dcache.tags.sampledRefs               1847                       # Sample count of references to valid blocks. (Count)
system.cpu.dcache.tags.avgRefs            3872.945317                       # Average number of references to valid blocks. ((Count/Count))
system.cpu.dcache.tags.warmupTick             8741500                       # The tick when the warmup percentage was hit. (Tick)
system.cpu.dcache.tags.occupancies::cpu.data           64                       # Average occupied blocks per tick, per requestor ((Count/Tick))
system.cpu.dcache.tags.avgOccs::cpu.data            1                       # Average percentage of cache occupancy ((Ratio/Tick))
system.cpu.dcache.tags.avgOccs::total               1                       # Average percentage of cache occupancy ((Ratio/Tick))
system.cpu.dcache.tags.occupanciesTaskId::1024           64                       # Occupied blocks per task id (Count)
system.cpu.dcache.tags.ageTaskId_1024::0           24                       # Occupied blocks per task id, per block age (Count)
system.cpu.dcache.tags.ageTaskId_1024::3           40                       # Occupied blocks per task id, per block age (Count)
system.cpu.dcache.tags.ratioOccsTaskId::1024            1                       # Ratio of occupied blocks and all blocks, per task id (Ratio)
system.cpu.dcache.tags.tagAccesses           17927443                       # Number of tag accesses (Count)
system.cpu.dcache.tags.dataAccesses          17927443                       # Number of data accesses (Count)
system.cpu.dcache.tags.power_state.pwrStateResidencyTicks::UNDEFINED   8796029000                       # Cumulative time (in ticks) in various power states (Tick)
system.cpu.decode.idleCycles                  3902059                       # Number of cycles decode is idle (Cycle)
system.cpu.decode.blockedCycles               2526634                       # Number of cycles decode is blocked (Cycle)
system.cpu.decode.runCycles                   9128334                       # Number of cycles decode is running (Cycle)
system.cpu.decode.unblockCycles               1354487                       # Number of cycles decode is unblocking (Cycle)
system.cpu.decode.squashCycles                 301840                       # Number of cycles decode is squashing (Cycle)
system.cpu.decode.branchResolved              2454546                       # Number of times decode resolved a branch (Count)
system.cpu.decode.branchMispred                   142                       # Number of times decode detected a branch misprediction (Count)
system.cpu.decode.decodedInsts               54377182                       # Number of instructions handled by decode (Count)
system.cpu.decode.squashedInsts                   442                       # Number of squashed instructions handled by decode (Count)
system.cpu.fetch.icacheStallCycles            5394047                       # Number of cycles fetch is stalled on an Icache miss (Cycle)
system.cpu.fetch.insts                       36762536                       # Number of instructions fetch has processed (Count)
system.cpu.fetch.branches                     3365370                       # Number of branches that fetch encountered (Count)
system.cpu.fetch.predictedBranches            2523064                       # Number of branches that fetch has predicted taken (Count)
system.cpu.fetch.cycles                      11515081                       # Number of cycles fetch has run and was not squashing or blocked (Cycle)
system.cpu.fetch.squashCycles                  603940                       # Number of cycles fetch has spent squashing (Cycle)
system.cpu.fetch.miscStallCycles                  264                       # Number of cycles fetch has spent waiting on interrupts, or bad addresses, or out of MSHRs (Cycle)
system.cpu.fetch.pendingTrapStallCycles          1931                       # Number of stall cycles due to pending traps (Cycle)
system.cpu.fetch.icacheWaitRetryStallCycles           61                       # Number of stall cycles due to full MSHR (Cycle)
system.cpu.fetch.cacheLines                   5320719                       # Number of cache lines fetched (Count)
system.cpu.fetch.icacheSquashes                128464                       # Number of outstanding Icache misses that were squashed (Count)
system.cpu.fetch.nisnDist::samples           17213354                       # Number of instructions fetched each cycle (Total) (Count)
system.cpu.fetch.nisnDist::mean              3.247670                       # Number of instructions fetched each cycle (Total) (Count)
system.cpu.fetch.nisnDist::stdev             2.566981                       # Number of instructions fetched each cycle (Total) (Count)
system.cpu.fetch.nisnDist::underflows               0      0.00%      0.00% # Number of instructions fetched each cycle (Total) (Count)
system.cpu.fetch.nisnDist::0                  5837063     33.91%     33.91% # Number of instructions fetched each cycle (Total) (Count)
system.cpu.fetch.nisnDist::1                   165740      0.96%     34.87% # Number of instructions fetched each cycle (Total) (Count)
system.cpu.fetch.nisnDist::2                     8675      0.05%     34.92% # Number of instructions fetched each cycle (Total) (Count)
system.cpu.fetch.nisnDist::3                  2437725     14.16%     49.09% # Number of instructions fetched each cycle (Total) (Count)
system.cpu.fetch.nisnDist::4                  1644100      9.55%     58.64% # Number of instructions fetched each cycle (Total) (Count)
system.cpu.fetch.nisnDist::5                   889679      5.17%     63.81% # Number of instructions fetched each cycle (Total) (Count)
system.cpu.fetch.nisnDist::6                  6230372     36.19%    100.00% # Number of instructions fetched each cycle (Total) (Count)
system.cpu.fetch.nisnDist::overflows                0      0.00%    100.00% # Number of instructions fetched each cycle (Total) (Count)
system.cpu.fetch.nisnDist::min_value                0                       # Number of instructions fetched each cycle (Total) (Count)
system.cpu.fetch.nisnDist::max_value                6                       # Number of instructions fetched each cycle (Total) (Count)
system.cpu.fetch.nisnDist::total             17213354                       # Number of instructions fetched each cycle (Total) (Count)
system.cpu.fetch.branchRate                  0.195211                       # Number of branch fetches per cycle (Ratio)
system.cpu.fetch.rate                        2.132444                       # Number of inst fetches per cycle ((Count/Cycle))
system.cpu.icache.demandHits::cpu.inst        5319590                       # number of demand (read+write) hits (Count)
system.cpu.icache.demandHits::total           5319590                       # number of demand (read+write) hits (Count)
system.cpu.icache.overallHits::cpu.inst       5319590                       # number of overall hits (Count)
system.cpu.icache.overallHits::total          5319590                       # number of overall hits (Count)
system.cpu.icache.demandMisses::cpu.inst         1129                       # number of demand (read+write) misses (Count)
system.cpu.icache.demandMisses::total            1129                       # number of demand (read+write) misses (Count)
system.cpu.icache.overallMisses::cpu.inst         1129                       # number of overall misses (Count)
system.cpu.icache.overallMisses::total           1129                       # number of overall misses (Count)
system.cpu.icache.demandMissLatency::cpu.inst     40499498                       # number of demand (read+write) miss ticks (Tick)
system.cpu.icache.demandMissLatency::total     40499498                       # number of demand (read+write) miss ticks (Tick)
system.cpu.icache.overallMissLatency::cpu.inst     40499498                       # number of overall miss ticks (Tick)
system.cpu.icache.overallMissLatency::total     40499498                       # number of overall miss ticks (Tick)
system.cpu.icache.demandAccesses::cpu.inst      5320719                       # number of demand (read+write) accesses (Count)
system.cpu.icache.demandAccesses::total       5320719                       # number of demand (read+write) accesses (Count)
system.cpu.icache.overallAccesses::cpu.inst      5320719                       # number of overall (read+write) accesses (Count)
system.cpu.icache.overallAccesses::total      5320719                       # number of overall (read+write) accesses (Count)
system.cpu.icache.demandMissRate::cpu.inst     0.000212                       # miss rate for demand accesses (Ratio)
system.cpu.icache.demandMissRate::total      0.000212                       # miss rate for demand accesses (Ratio)
system.cpu.icache.overallMissRate::cpu.inst     0.000212                       # miss rate for overall accesses (Ratio)
system.cpu.icache.overallMissRate::total     0.000212                       # miss rate for overall accesses (Ratio)
system.cpu.icache.demandAvgMissLatency::cpu.inst 35872.008857                       # average overall miss latency in ticks ((Tick/Count))
system.cpu.icache.demandAvgMissLatency::total 35872.008857                       # average overall miss latency in ticks ((Tick/Count))
system.cpu.icache.overallAvgMissLatency::cpu.inst 35872.008857                       # average overall miss latency ((Tick/Count))
system.cpu.icache.overallAvgMissLatency::total 35872.008857                       # average overall miss latency ((Tick/Count))
system.cpu.icache.blockedCycles::no_mshrs          389                       # number of cycles access was blocked (Cycle)
system.cpu.icache.blockedCycles::no_targets            0                       # number of cycles access was blocked (Cycle)
system.cpu.icache.blockedCauses::no_mshrs            6                       # number of times access was blocked (Count)
system.cpu.icache.blockedCauses::no_targets            0                       # number of times access was blocked (Count)
system.cpu.icache.avgBlocked::no_mshrs      64.833333                       # average number of cycles each access was blocked ((Cycle/Count))
system.cpu.icache.avgBlocked::no_targets          nan                       # average number of cycles each access was blocked ((Cycle/Count))
system.cpu.icache.demandMshrHits::cpu.inst          133                       # number of demand (read+write) MSHR hits (Count)
system.cpu.icache.demandMshrHits::total           133                       # number of demand (read+write) MSHR hits (Count)
system.cpu.icache.overallMshrHits::cpu.inst          133                       # number of overall MSHR hits (Count)
system.cpu.icache.overallMshrHits::total          133                       # number of overall MSHR hits (Count)
system.cpu.icache.demandMshrMisses::cpu.inst          996                       # number of demand (read+write) MSHR misses (Count)
system.cpu.icache.demandMshrMisses::total          996                       # number of demand (read+write) MSHR misses (Count)
system.cpu.icache.overallMshrMisses::cpu.inst          996                       # number of overall MSHR misses (Count)
system.cpu.icache.overallMshrMisses::total          996                       # number of overall MSHR misses (Count)
system.cpu.icache.demandMshrMissLatency::cpu.inst     34156999                       # number of demand (read+write) MSHR miss ticks (Tick)
system.cpu.icache.demandMshrMissLatency::total     34156999                       # number of demand (read+write) MSHR miss ticks (Tick)
system.cpu.icache.overallMshrMissLatency::cpu.inst     34156999                       # number of overall MSHR miss ticks (Tick)
system.cpu.icache.overallMshrMissLatency::total     34156999                       # number of overall MSHR miss ticks (Tick)
system.cpu.icache.demandMshrMissRate::cpu.inst     0.000187                       # mshr miss ratio for demand accesses (Ratio)
system.cpu.icache.demandMshrMissRate::total     0.000187                       # mshr miss ratio for demand accesses (Ratio)
system.cpu.icache.overallMshrMissRate::cpu.inst     0.000187                       # mshr miss ratio for overall accesses (Ratio)
system.cpu.icache.overallMshrMissRate::total     0.000187                       # mshr miss ratio for overall accesses (Ratio)
system.cpu.icache.demandAvgMshrMissLatency::cpu.inst 34294.175703                       # average overall mshr miss latency ((Tick/Count))
system.cpu.icache.demandAvgMshrMissLatency::total 34294.175703                       # average overall mshr miss latency ((Tick/Count))
system.cpu.icache.overallAvgMshrMissLatency::cpu.inst 34294.175703                       # average overall mshr miss latency ((Tick/Count))
system.cpu.icache.overallAvgMshrMissLatency::total 34294.175703                       # average overall mshr miss latency ((Tick/Count))
system.cpu.icache.replacements                    995                       # number of replacements (Count)
system.cpu.icache.ReadReq.hits::cpu.inst      5319590                       # number of ReadReq hits (Count)
system.cpu.icache.ReadReq.hits::total         5319590                       # number of ReadReq hits (Count)
system.cpu.icache.ReadReq.misses::cpu.inst         1129                       # number of ReadReq misses (Count)
system.cpu.icache.ReadReq.misses::total          1129                       # number of ReadReq misses (Count)
system.cpu.icache.ReadReq.missLatency::cpu.inst     40499498                       # number of ReadReq miss ticks (Tick)
system.cpu.icache.ReadReq.missLatency::total     40499498                       # number of ReadReq miss ticks (Tick)
system.cpu.icache.ReadReq.accesses::cpu.inst      5320719                       # number of ReadReq accesses(hits+misses) (Count)
system.cpu.icache.ReadReq.accesses::total      5320719                       # number of ReadReq accesses(hits+misses) (Count)
system.cpu.icache.ReadReq.missRate::cpu.inst     0.000212                       # miss rate for ReadReq accesses (Ratio)
system.cpu.icache.ReadReq.missRate::total     0.000212                       # miss rate for ReadReq accesses (Ratio)
system.cpu.icache.ReadReq.avgMissLatency::cpu.inst 35872.008857                       # average ReadReq miss latency ((Tick/Count))
system.cpu.icache.ReadReq.avgMissLatency::total 35872.008857                       # average ReadReq miss latency ((Tick/Count))
system.cpu.icache.ReadReq.mshrHits::cpu.inst          133                       # number of ReadReq MSHR hits (Count)
system.cpu.icache.ReadReq.mshrHits::total          133                       # number of ReadReq MSHR hits (Count)
system.cpu.icache.ReadReq.mshrMisses::cpu.inst          996                       # number of ReadReq MSHR misses (Count)
system.cpu.icache.ReadReq.mshrMisses::total          996                       # number of ReadReq MSHR misses (Count)
system.cpu.icache.ReadReq.mshrMissLatency::cpu.inst     34156999                       # number of ReadReq MSHR miss ticks (Tick)
system.cpu.icache.ReadReq.mshrMissLatency::total     34156999                       # number of ReadReq MSHR miss ticks (Tick)
system.cpu.icache.ReadReq.mshrMissRate::cpu.inst     0.000187                       # mshr miss rate for ReadReq accesses (Ratio)
system.cpu.icache.ReadReq.mshrMissRate::total     0.000187                       # mshr miss rate for ReadReq accesses (Ratio)
system.cpu.icache.ReadReq.avgMshrMissLatency::cpu.inst 34294.175703                       # average ReadReq mshr miss latency ((Tick/Count))
system.cpu.icache.ReadReq.avgMshrMissLatency::total 34294.175703                       # average ReadReq mshr miss latency ((Tick/Count))
system.cpu.icache.power_state.pwrStateResidencyTicks::UNDEFINED   8796029000                       # Cumulative time (in ticks) in various power states (Tick)
system.cpu.icache.tags.tagsInUse            63.999925                       # Average ticks per tags in use ((Tick/Count))
system.cpu.icache.tags.totalRefs              5306647                       # Total number of references to valid blocks. (Count)
system.cpu.icache.tags.sampledRefs                996                       # Sample count of references to valid blocks. (Count)
system.cpu.icache.tags.avgRefs            5327.958835                       # Average number of references to valid blocks. ((Count/Count))
system.cpu.icache.tags.warmupTick            11298500                       # The tick when the warmup percentage was hit. (Tick)
system.cpu.icache.tags.occupancies::cpu.inst    63.999925                       # Average occupied blocks per tick, per requestor ((Count/Tick))
system.cpu.icache.tags.avgOccs::cpu.inst     0.999999                       # Average percentage of cache occupancy ((Ratio/Tick))
system.cpu.icache.tags.avgOccs::total        0.999999                       # Average percentage of cache occupancy ((Ratio/Tick))
system.cpu.icache.tags.occupanciesTaskId::1024           64                       # Occupied blocks per task id (Count)
system.cpu.icache.tags.ageTaskId_1024::0           39                       # Occupied blocks per task id, per block age (Count)
system.cpu.icache.tags.ageTaskId_1024::3           25                       # Occupied blocks per task id, per block age (Count)
system.cpu.icache.tags.ratioOccsTaskId::1024            1                       # Ratio of occupied blocks and all blocks, per task id (Ratio)
system.cpu.icache.tags.tagAccesses           10642434                       # Number of tag accesses (Count)
system.cpu.icache.tags.dataAccesses          10642434                       # Number of data accesses (Count)
system.cpu.icache.tags.power_state.pwrStateResidencyTicks::UNDEFINED   8796029000                       # Cumulative time (in ticks) in various power states (Tick)
system.cpu.iew.idleCycles                           0                       # Number of cycles IEW is idle (Cycle)
system.cpu.iew.squashCycles                    301840                       # Number of cycles IEW is squashing (Cycle)
system.cpu.iew.blockCycles                    1057126                       # Number of cycles IEW is blocking (Cycle)
system.cpu.iew.unblockCycles                     1543                       # Number of cycles IEW is unblocking (Cycle)
system.cpu.iew.dispatchedInsts               50590296                       # Number of instructions dispatched to IQ (Count)
system.cpu.iew.dispSquashedInsts                  708                       # Number of squashed instructions skipped by dispatch (Count)
system.cpu.iew.dispLoadInsts                 16691435                       # Number of dispatched load instructions (Count)
system.cpu.iew.dispStoreInsts                 4095119                       # Number of dispatched store instructions (Count)
system.cpu.iew.dispNonSpecInsts                    23                       # Number of dispatched non-speculative instructions (Count)
system.cpu.iew.iqFullEvents                       555                       # Number of times the IQ has become full, causing a stall (Count)
system.cpu.iew.lsqFullEvents                      428                       # Number of times the LSQ has become full, causing a stall (Count)
system.cpu.iew.memOrderViolationEvents            196                       # Number of memory order violations (Count)
system.cpu.iew.predictedTakenIncorrect         149427                       # Number of branches that were predicted taken incorrectly (Count)
system.cpu.iew.predictedNotTakenIncorrect       153881                       # Number of branches that were predicted not taken incorrectly (Count)
system.cpu.iew.branchMispredicts               303308                       # Number of branch mispredicts detected at execute (Count)
system.cpu.iew.instsToCommit                 47811611                       # Cumulative count of insts sent to commit (Count)
system.cpu.iew.writebackCount                47596220                       # Cumulative count of insts written-back (Count)
system.cpu.iew.producerInst                  40685069                       # Number of instructions producing a value (Count)
system.cpu.iew.consumerInst                  43589235                       # Number of instructions consuming a value (Count)
system.cpu.iew.wbRate                        2.760862                       # Insts written-back per cycle ((Count/Cycle))
system.cpu.iew.wbFanout                      0.933374                       # Average fanout of values written-back ((Count/Count))
system.cpu.interrupts.clk_domain.clock           8000                       # Clock period in ticks (Tick)
system.cpu.lsq0.forwLoads                    10021081                       # Number of loads that had data forwarded from stores (Count)
system.cpu.lsq0.squashedLoads                 3351927                       # Number of loads squashed (Count)
system.cpu.lsq0.ignoredResponses                72575                       # Number of memory responses ignored because the instruction is squashed (Count)
system.cpu.lsq0.memOrderViolation                 196                       # Number of memory ordering violations (Count)
system.cpu.lsq0.squashedStores                 879093                       # Number of stores squashed (Count)
system.cpu.lsq0.rescheduledLoads                    8                       # Number of loads that were rescheduled (Count)
system.cpu.lsq0.blockedByCache                     13                       # Number of times an access to memory failed due to the cache being blocked (Count)
system.cpu.lsq0.loadToUse::samples           13339506                       # Distribution of cycle latency between the first time a load is issued and its completion (Unspecified)
system.cpu.lsq0.loadToUse::mean              2.485330                       # Distribution of cycle latency between the first time a load is issued and its completion (Unspecified)
system.cpu.lsq0.loadToUse::stdev             2.416780                       # Distribution of cycle latency between the first time a load is issued and its completion (Unspecified)
system.cpu.lsq0.loadToUse::0-9               13335631     99.97%     99.97% # Distribution of cycle latency between the first time a load is issued and its completion (Unspecified)
system.cpu.lsq0.loadToUse::10-19                   53      0.00%     99.97% # Distribution of cycle latency between the first time a load is issued and its completion (Unspecified)
system.cpu.lsq0.loadToUse::20-29                  336      0.00%     99.97% # Distribution of cycle latency between the first time a load is issued and its completion (Unspecified)
system.cpu.lsq0.loadToUse::30-39                   16      0.00%     99.97% # Distribution of cycle latency between the first time a load is issued and its completion (Unspecified)
system.cpu.lsq0.loadToUse::40-49                    1      0.00%     99.97% # Distribution of cycle latency between the first time a load is issued and its completion (Unspecified)
system.cpu.lsq0.loadToUse::50-59                    3      0.00%     99.97% # Distribution of cycle latency between the first time a load is issued and its completion (Unspecified)
system.cpu.lsq0.loadToUse::60-69                    3      0.00%     99.97% # Distribution of cycle latency between the first time a load is issued and its completion (Unspecified)
system.cpu.lsq0.loadToUse::70-79                   25      0.00%     99.97% # Distribution of cycle latency between the first time a load is issued and its completion (Unspecified)
system.cpu.lsq0.loadToUse::80-89                   48      0.00%     99.97% # Distribution of cycle latency between the first time a load is issued and its completion (Unspecified)
system.cpu.lsq0.loadToUse::90-99                  100      0.00%     99.98% # Distribution of cycle latency between the first time a load is issued and its completion (Unspecified)
system.cpu.lsq0.loadToUse::100-109                315      0.00%     99.98% # Distribution of cycle latency between the first time a load is issued and its completion (Unspecified)
system.cpu.lsq0.loadToUse::110-119                382      0.00%     99.98% # Distribution of cycle latency between the first time a load is issued and its completion (Unspecified)
system.cpu.lsq0.loadToUse::120-129                558      0.00%     99.98% # Distribution of cycle latency between the first time a load is issued and its completion (Unspecified)
system.cpu.lsq0.loadToUse::130-139               1652      0.01%    100.00% # Distribution of cycle latency between the first time a load is issued and its completion (Unspecified)
system.cpu.lsq0.loadToUse::140-149                 93      0.00%    100.00% # Distribution of cycle latency between the first time a load is issued and its completion (Unspecified)
system.cpu.lsq0.loadToUse::150-159                 40      0.00%    100.00% # Distribution of cycle latency between the first time a load is issued and its completion (Unspecified)
system.cpu.lsq0.loadToUse::160-169                147      0.00%    100.00% # Distribution of cycle latency between the first time a load is issued and its completion (Unspecified)
system.cpu.lsq0.loadToUse::170-179                 11      0.00%    100.00% # Distribution of cycle latency between the first time a load is issued and its completion (Unspecified)
system.cpu.lsq0.loadToUse::180-189                  5      0.00%    100.00% # Distribution of cycle latency between the first time a load is issued and its completion (Unspecified)
system.cpu.lsq0.loadToUse::190-199                 29      0.00%    100.00% # Distribution of cycle latency between the first time a load is issued and its completion (Unspecified)
system.cpu.lsq0.loadToUse::200-209                  6      0.00%    100.00% # Distribution of cycle latency between the first time a load is issued and its completion (Unspecified)
system.cpu.lsq0.loadToUse::210-219                  2      0.00%    100.00% # Distribution of cycle latency between the first time a load is issued and its completion (Unspecified)
system.cpu.lsq0.loadToUse::220-229                  1      0.00%    100.00% # Distribution of cycle latency between the first time a load is issued and its completion (Unspecified)
system.cpu.lsq0.loadToUse::240-249                  1      0.00%    100.00% # Distribution of cycle latency between the first time a load is issued and its completion (Unspecified)
system.cpu.lsq0.loadToUse::250-259                  1      0.00%    100.00% # Distribution of cycle latency between the first time a load is issued and its completion (Unspecified)
system.cpu.lsq0.loadToUse::260-269                  1      0.00%    100.00% # Distribution of cycle latency between the first time a load is issued and its completion (Unspecified)
system.cpu.lsq0.loadToUse::280-289                  3      0.00%    100.00% # Distribution of cycle latency between the first time a load is issued and its completion (Unspecified)
system.cpu.lsq0.loadToUse::overflows               43      0.00%    100.00% # Distribution of cycle latency between the first time a load is issued and its completion (Unspecified)
system.cpu.lsq0.loadToUse::min_value                2                       # Distribution of cycle latency between the first time a load is issued and its completion (Unspecified)
system.cpu.lsq0.loadToUse::max_value              707                       # Distribution of cycle latency between the first time a load is issued and its completion (Unspecified)
system.cpu.lsq0.loadToUse::total             13339506                       # Distribution of cycle latency between the first time a load is issued and its completion (Unspecified)
system.cpu.mmu.dtb.rdAccesses                15767887                       # TLB accesses on read requests (Count)
system.cpu.mmu.dtb.wrAccesses                 3813728                       # TLB accesses on write requests (Count)
system.cpu.mmu.dtb.rdMisses                        55                       # TLB misses on read requests (Count)
system.cpu.mmu.dtb.wrMisses                        10                       # TLB misses on write requests (Count)
system.cpu.mmu.dtb.walker.power_state.pwrStateResidencyTicks::UNDEFINED   8796029000                       # Cumulative time (in ticks) in various power states (Tick)
system.cpu.mmu.itb.rdAccesses                       0                       # TLB accesses on read requests (Count)
system.cpu.mmu.itb.wrAccesses                 5321010                       # TLB accesses on write requests (Count)
system.cpu.mmu.itb.rdMisses                         0                       # TLB misses on read requests (Count)
system.cpu.mmu.itb.wrMisses                       323                       # TLB misses on write requests (Count)
system.cpu.mmu.itb.walker.power_state.pwrStateResidencyTicks::UNDEFINED   8796029000                       # Cumulative time (in ticks) in various power states (Tick)
system.cpu.power_state.pwrStateResidencyTicks::ON   8796029000                       # Cumulative time (in ticks) in various power states (Tick)
[...]
system.mem_ctrls.dram.numReads::cpu.inst          453                       # Number of read requests responded to by this memory (Count)
system.mem_ctrls.dram.numReads::cpu.data         1391                       # Number of read requests responded to by this memory (Count)
system.mem_ctrls.dram.numReads::total            1844                       # Number of read requests responded to by this memory (Count)
system.mem_ctrls.dram.numWrites::writebacks          122                       # Number of write requests responded to by this memory (Count)
system.mem_ctrls.dram.numWrites::total            122                       # Number of write requests responded to by this memory (Count)
system.mem_ctrls.dram.bwRead::cpu.inst        3360560                       # Total read bandwidth from this memory ((Byte/Second))
system.mem_ctrls.dram.bwRead::cpu.data       10319069                       # Total read bandwidth from this memory ((Byte/Second))
system.mem_ctrls.dram.bwRead::total          13679629                       # Total read bandwidth from this memory ((Byte/Second))
system.mem_ctrls.dram.bwInstRead::cpu.inst      3360560                       # Instruction read bandwidth from this memory ((Byte/Second))
system.mem_ctrls.dram.bwInstRead::total       3360560                       # Instruction read bandwidth from this memory ((Byte/Second))
system.mem_ctrls.dram.bwWrite::writebacks       905051                       # Write bandwidth from this memory ((Byte/Second))
system.mem_ctrls.dram.bwWrite::total           905051                       # Write bandwidth from this memory ((Byte/Second))
system.mem_ctrls.dram.bwTotal::writebacks       905051                       # Total bandwidth to/from this memory ((Byte/Second))
system.mem_ctrls.dram.bwTotal::cpu.inst       3360560                       # Total bandwidth to/from this memory ((Byte/Second))
system.mem_ctrls.dram.bwTotal::cpu.data      10319069                       # Total bandwidth to/from this memory ((Byte/Second))
system.mem_ctrls.dram.bwTotal::total         14584680                       # Total bandwidth to/from this memory ((Byte/Second))
system.mem_ctrls.dram.readBursts                 1823                       # Number of DRAM read bursts (Count)
system.mem_ctrls.dram.writeBursts                 132                       # Number of DRAM write bursts (Count)
system.mem_ctrls.dram.perBankRdBursts::0          181                       # Per bank write bursts (Count)
system.mem_ctrls.dram.perBankRdBursts::1          172                       # Per bank write bursts (Count)
system.mem_ctrls.dram.perBankRdBursts::2          102                       # Per bank write bursts (Count)
system.mem_ctrls.dram.perBankRdBursts::3          154                       # Per bank write bursts (Count)
system.mem_ctrls.dram.perBankRdBursts::4          164                       # Per bank write bursts (Count)
system.mem_ctrls.dram.perBankRdBursts::5           43                       # Per bank write bursts (Count)
system.mem_ctrls.dram.perBankRdBursts::6           24                       # Per bank write bursts (Count)
system.mem_ctrls.dram.perBankRdBursts::7           20                       # Per bank write bursts (Count)
system.mem_ctrls.dram.perBankRdBursts::8          148                       # Per bank write bursts (Count)
system.mem_ctrls.dram.perBankRdBursts::9           64                       # Per bank write bursts (Count)
system.mem_ctrls.dram.perBankRdBursts::10          132                       # Per bank write bursts (Count)
system.mem_ctrls.dram.perBankRdBursts::11          143                       # Per bank write bursts (Count)
system.mem_ctrls.dram.perBankRdBursts::12          143                       # Per bank write bursts (Count)
system.mem_ctrls.dram.perBankRdBursts::13           81                       # Per bank write bursts (Count)
system.mem_ctrls.dram.perBankRdBursts::14          141                       # Per bank write bursts (Count)
system.mem_ctrls.dram.perBankRdBursts::15          111                       # Per bank write bursts (Count)
system.mem_ctrls.dram.perBankWrBursts::0            2                       # Per bank write bursts (Count)
system.mem_ctrls.dram.perBankWrBursts::1           13                       # Per bank write bursts (Count)
system.mem_ctrls.dram.perBankWrBursts::2            1                       # Per bank write bursts (Count)
system.mem_ctrls.dram.perBankWrBursts::3            6                       # Per bank write bursts (Count)
system.mem_ctrls.dram.perBankWrBursts::4            0                       # Per bank write bursts (Count)
system.mem_ctrls.dram.perBankWrBursts::5            0                       # Per bank write bursts (Count)
system.mem_ctrls.dram.perBankWrBursts::6            3                       # Per bank write bursts (Count)
system.mem_ctrls.dram.perBankWrBursts::7            0                       # Per bank write bursts (Count)
system.mem_ctrls.dram.perBankWrBursts::8           59                       # Per bank write bursts (Count)
system.mem_ctrls.dram.perBankWrBursts::9           44                       # Per bank write bursts (Count)
system.mem_ctrls.dram.perBankWrBursts::10            0                       # Per bank write bursts (Count)
system.mem_ctrls.dram.perBankWrBursts::11            0                       # Per bank write bursts (Count)
system.mem_ctrls.dram.perBankWrBursts::12            0                       # Per bank write bursts (Count)
system.mem_ctrls.dram.perBankWrBursts::13            3                       # Per bank write bursts (Count)
system.mem_ctrls.dram.perBankWrBursts::14            0                       # Per bank write bursts (Count)
system.mem_ctrls.dram.perBankWrBursts::15            1                       # Per bank write bursts (Count)
system.mem_ctrls.dram.totQLat                14157000                       # Total ticks spent queuing (Tick)
system.mem_ctrls.dram.totBusLat               9115000                       # Total ticks spent in databus transfers (Tick)
system.mem_ctrls.dram.totMemAccLat           48338250                       # Total ticks spent from burst creation until serviced by the DRAM (Tick)
system.mem_ctrls.dram.avgQLat                 7765.77                       # Average queueing delay per DRAM burst ((Tick/Count))
system.mem_ctrls.dram.avgBusLat               5000.00                       # Average bus latency per DRAM burst ((Tick/Count))
system.mem_ctrls.dram.avgMemAccLat           26515.77                       # Average memory access latency per DRAM burst ((Tick/Count))
system.mem_ctrls.dram.readRowHits                1546                       # Number of row buffer hits during reads (Count)
system.mem_ctrls.dram.writeRowHits                108                       # Number of row buffer hits during writes (Count)
system.mem_ctrls.dram.readRowHitRate            84.81                       # Row buffer hit rate for reads (Ratio)
system.mem_ctrls.dram.writeRowHitRate           81.82                       # Row buffer hit rate for writes (Ratio)
system.mem_ctrls.dram.bytesPerActivate::samples          302                       # Bytes accessed per row activation (Byte)
system.mem_ctrls.dram.bytesPerActivate::mean   415.152318                       # Bytes accessed per row activation (Byte)
system.mem_ctrls.dram.bytesPerActivate::gmean   248.100914                       # Bytes accessed per row activation (Byte)
system.mem_ctrls.dram.bytesPerActivate::stdev   372.148396                       # Bytes accessed per row activation (Byte)
system.mem_ctrls.dram.bytesPerActivate::0-127           87     28.81%     28.81% # Bytes accessed per row activation (Byte)
system.mem_ctrls.dram.bytesPerActivate::128-255           58     19.21%     48.01% # Bytes accessed per row activation (Byte)
system.mem_ctrls.dram.bytesPerActivate::256-383           29      9.60%     57.62% # Bytes accessed per row activation (Byte)
system.mem_ctrls.dram.bytesPerActivate::384-511           19      6.29%     63.91% # Bytes accessed per row activation (Byte)
system.mem_ctrls.dram.bytesPerActivate::512-639           18      5.96%     69.87% # Bytes accessed per row activation (Byte)
system.mem_ctrls.dram.bytesPerActivate::640-767           14      4.64%     74.50% # Bytes accessed per row activation (Byte)
system.mem_ctrls.dram.bytesPerActivate::768-895           14      4.64%     79.14% # Bytes accessed per row activation (Byte)
system.mem_ctrls.dram.bytesPerActivate::896-1023            2      0.66%     79.80% # Bytes accessed per row activation (Byte)
system.mem_ctrls.dram.bytesPerActivate::1024-1151           61     20.20%    100.00% # Bytes accessed per row activation (Byte)
system.mem_ctrls.dram.bytesPerActivate::total          302                       # Bytes accessed per row activation (Byte)
system.mem_ctrls.dram.bytesRead                116672                       # Total bytes read (Byte)
system.mem_ctrls.dram.bytesWritten               8448                       # Total bytes written (Byte)
system.mem_ctrls.dram.avgRdBW               13.523842                       # Average DRAM read bandwidth in MiBytes/s ((Byte/Second))
system.mem_ctrls.dram.avgWrBW                0.979236                       # Average DRAM write bandwidth in MiBytes/s ((Byte/Second))
system.mem_ctrls.dram.peakBW                 12800.00                       # Theoretical peak bandwidth in MiByte/s ((Byte/Second))
system.mem_ctrls.dram.busUtil                    0.11                       # Data bus utilization in percentage (Ratio)
system.mem_ctrls.dram.busUtilRead                0.11                       # Data bus utilization in percentage for reads (Ratio)
system.mem_ctrls.dram.busUtilWrite               0.01                       # Data bus utilization in percentage for writes (Ratio)
system.mem_ctrls.dram.pageHitRate               84.60                       # Row buffer hit rate, read and write combined (Ratio)
system.mem_ctrls.dram.power_state.pwrStateResidencyTicks::UNDEFINED   8803352000                       # Cumulative time (in ticks) in various power states (Tick)
system.mem_ctrls.dram.rank0.actEnergy         1085280                       # Energy for activate commands per rank (pJ) (Joule)
system.mem_ctrls.dram.rank0.preEnergy          554070                       # Energy for precharge commands per rank (pJ) (Joule)
system.mem_ctrls.dram.rank0.readEnergy        6361740                       # Energy for read commands per rank (pJ) (Joule)
system.mem_ctrls.dram.rank0.writeEnergy        130500                       # Energy for write commands per rank (pJ) (Joule)
system.mem_ctrls.dram.rank0.refreshEnergy 681021120.000000                       # Energy for refresh commands per rank (pJ) (Joule)
system.mem_ctrls.dram.rank0.actBackEnergy    178926990                       # Energy for active background per rank (pJ) (Joule)
system.mem_ctrls.dram.rank0.preBackEnergy   3163815840                       # Energy for precharge background per rank (pJ) (Joule)
system.mem_ctrls.dram.rank0.actPowerDownEnergy            0                       # Energy for active power-down per rank (pJ) (Joule)
system.mem_ctrls.dram.rank0.prePowerDownEnergy            0                       # Energy for precharge power-down per rank (pJ) (Joule)
system.mem_ctrls.dram.rank0.selfRefreshEnergy            0                       # Energy for self refresh per rank (pJ) (Joule)
system.mem_ctrls.dram.rank0.totalEnergy    4031895540                       # Total energy per rank (pJ) (Joule)
system.mem_ctrls.dram.rank0.averagePower   467.350490                       # Core power per rank (mW) (Watt)
system.mem_ctrls.dram.rank0.totalIdleTime            0                       # Total Idle time Per DRAM Rank (Tick)
system.mem_ctrls.dram.rank0.pwrStateTime::IDLE   8223478750                       # Time in different power states (Tick)
system.mem_ctrls.dram.rank0.pwrStateTime::REF    288080000                       # Time in different power states (Tick)
system.mem_ctrls.dram.rank0.pwrStateTime::SREF            0                       # Time in different power states (Tick)
system.mem_ctrls.dram.rank0.pwrStateTime::PRE_PDN            0                       # Time in different power states (Tick)
system.mem_ctrls.dram.rank0.pwrStateTime::ACT    119928250                       # Time in different power states (Tick)
system.mem_ctrls.dram.rank0.pwrStateTime::ACT_PDN            0                       # Time in different power states (Tick)
system.mem_ctrls.dram.rank1.actEnergy         1199520                       # Energy for activate commands per rank (pJ) (Joule)
system.mem_ctrls.dram.rank1.preEnergy          622380                       # Energy for precharge commands per rank (pJ) (Joule)
system.mem_ctrls.dram.rank1.readEnergy        7282800                       # Energy for read commands per rank (pJ) (Joule)
system.mem_ctrls.dram.rank1.writeEnergy        558540                       # Energy for write commands per rank (pJ) (Joule)
system.mem_ctrls.dram.rank1.refreshEnergy 681021120.000000                       # Energy for refresh commands per rank (pJ) (Joule)
system.mem_ctrls.dram.rank1.actBackEnergy    190718580                       # Energy for active background per rank (pJ) (Joule)
system.mem_ctrls.dram.rank1.preBackEnergy   3153998880                       # Energy for precharge background per rank (pJ) (Joule)
system.mem_ctrls.dram.rank1.actPowerDownEnergy            0                       # Energy for active power-down per rank (pJ) (Joule)
system.mem_ctrls.dram.rank1.prePowerDownEnergy            0                       # Energy for precharge power-down per rank (pJ) (Joule)
system.mem_ctrls.dram.rank1.selfRefreshEnergy            0                       # Energy for self refresh per rank (pJ) (Joule)
system.mem_ctrls.dram.rank1.totalEnergy    4035401820                       # Total energy per rank (pJ) (Joule)
system.mem_ctrls.dram.rank1.averagePower   467.756915                       # Core power per rank (mW) (Watt)
system.mem_ctrls.dram.rank1.totalIdleTime            0                       # Total Idle time Per DRAM Rank (Tick)
system.mem_ctrls.dram.rank1.pwrStateTime::IDLE   8197940000                       # Time in different power states (Tick)
system.mem_ctrls.dram.rank1.pwrStateTime::REF    288080000                       # Time in different power states (Tick)
system.mem_ctrls.dram.rank1.pwrStateTime::SREF            0                       # Time in different power states (Tick)
system.mem_ctrls.dram.rank1.pwrStateTime::PRE_PDN            0                       # Time in different power states (Tick)
system.mem_ctrls.dram.rank1.pwrStateTime::ACT    145760750                       # Time in different power states (Tick)
system.mem_ctrls.dram.rank1.pwrStateTime::ACT_PDN            0                       # Time in different power states (Tick)
system.mem_ctrls.power_state.pwrStateResidencyTicks::UNDEFINED   8803352000                       # Cumulative time (in ticks) in various power states (Tick)
system.membus.transDist::ReadResp                1700                       # Transaction distribution (Count)
system.membus.transDist::WritebackDirty           122                       # Transaction distribution (Count)
system.membus.transDist::CleanEvict              1725                       # Transaction distribution (Count)
system.membus.transDist::ReadExReq                144                       # Transaction distribution (Count)
system.membus.transDist::ReadExResp               144                       # Transaction distribution (Count)
system.membus.transDist::ReadSharedReq           1701                       # Transaction distribution (Count)
system.membus.pktCount_system.l2cache.mem_side_port::system.mem_ctrls.port         5536                       # Packet count per connected requestor and responder (Count)
system.membus.pktCount_system.l2cache.mem_side_port::total         5536                       # Packet count per connected requestor and responder (Count)
system.membus.pktCount::total                    5536                       # Packet count per connected requestor and responder (Count)
system.membus.pktSize_system.l2cache.mem_side_port::system.mem_ctrls.port       125824                       # Cumulative packet size per connected requestor and responder (Byte)
system.membus.pktSize_system.l2cache.mem_side_port::total       125824                       # Cumulative packet size per connected requestor and responder (Byte)
system.membus.pktSize::total                   125824                       # Cumulative packet size per connected requestor and responder (Byte)
system.membus.snoops                                0                       # Total snoops (Count)
system.membus.snoopTraffic                          0                       # Total snoop traffic (Byte)
system.membus.snoopFanout::samples               1845                       # Request fanout histogram (Count)
system.membus.snoopFanout::mean                     0                       # Request fanout histogram (Count)
system.membus.snoopFanout::stdev                    0                       # Request fanout histogram (Count)
system.membus.snoopFanout::underflows               0      0.00%      0.00% # Request fanout histogram (Count)
system.membus.snoopFanout::0                     1845    100.00%    100.00% # Request fanout histogram (Count)
system.membus.snoopFanout::1                        0      0.00%    100.00% # Request fanout histogram (Count)
system.membus.snoopFanout::overflows                0      0.00%    100.00% # Request fanout histogram (Count)
system.membus.snoopFanout::min_value                0                       # Request fanout histogram (Count)
system.membus.snoopFanout::max_value                0                       # Request fanout histogram (Count)
system.membus.snoopFanout::total                 1845                       # Request fanout histogram (Count)
system.membus.power_state.pwrStateResidencyTicks::UNDEFINED   8803352000                       # Cumulative time (in ticks) in various power states (Tick)
system.membus.reqLayer2.occupancy             2090000                       # Layer occupancy (ticks) (Tick)
system.membus.reqLayer2.utilization               0.0                       # Layer utilization (Ratio)
system.membus.respLayer1.occupancy            5011250                       # Layer occupancy (ticks) (Tick)
system.membus.respLayer1.utilization              0.0                       # Layer utilization (Ratio)
system.membus.snoop_filter.totRequests           3692                       # Total number of requests made to the snoop filter. (Count)
system.membus.snoop_filter.hitSingleRequests         1847                       # Number of requests hitting in the snoop filter with a single holder of the requested data. (Count)
system.membus.snoop_filter.hitMultiRequests            0                       # Number of requests hitting in the snoop filter with multiple (>1) holders of the requested data. (Count)
system.membus.snoop_filter.totSnoops                0                       # Total number of snoops made to the snoop filter. (Count)
system.membus.snoop_filter.hitSingleSnoops            0                       # Number of snoops hitting in the snoop filter with a single holder of the requested data. (Count)
system.membus.snoop_filter.hitMultiSnoops            0                       # Number of snoops hitting in the snoop filter with multiple (>1) holders of the requested data. (Count)
system.workload.inst.arm                            0                       # number of arm instructions executed (Count)
system.workload.inst.quiesce                        0                       # number of quiesce instructions executed (Count)

---------- End Simulation Statistics   ----------
