
---------- Begin Simulation Statistics ----------
simSeconds                                   0.007153                       # Number of seconds simulated (Second)
simTicks                                   7153411500                       # Number of ticks simulated (Tick)
finalTick                                  7327587500                       # Number of ticks from beginning of simulation (restored from checkpoints and never reset) (Tick)
simFreq                                  1000000000000                       # The number of ticks per simulated second ((Tick/Second))
hostSeconds                                     91.91                       # Real time elapsed on the host (Second)
hostTickRate                                 77830525                       # The number of ticks simulated per host second (ticks/s) ((Tick/Second))
hostMemory                                     921132                       # Number of bytes of host memory used (Byte)
simInsts                                     26966475                       # Number of instructions simulated (Count)
simOps                                       41119203                       # Number of ops (including micro ops) simulated (Count)
hostInstRate                                   293400                       # Simulator instruction rate (inst/s) ((Count/Second))
hostOpRate                                     447385                       # Simulator op (including micro ops) rate (op/s) ((Count/Second))
system.clk_domain.clock                           500                       # Clock period in ticks (Tick)
system.clk_domain.voltage_domain.voltage            1                       # Voltage in Volts (Volt)
system.cpu.numCycles                         14306823                       # Number of cpu cycles simulated (Cycle)
system.cpu.numWorkItemsStarted                      0                       # Number of work items this cpu started (Count)
system.cpu.numWorkItemsCompleted                    0                       # Number of work items this cpu completed (Count)
system.cpu.instsAdded                        44747540                       # Number of instructions added to the IQ (excludes non-spec) (Count)
system.cpu.nonSpecInstsAdded                       24                       # Number of non-speculative instructions added to the IQ (Count)
system.cpu.instsIssued                       44001188                       # Number of instructions issued (Count)
system.cpu.squashedInstsIssued                    450                       # Number of squashed instructions issued (Count)
system.cpu.squashedInstsExamined              3801099                       # Number of squashed instructions iterated over during squash; mainly for profiling (Count)
system.cpu.squashedOperandsExamined           4243416                       # Number of squashed operands that are examined and possibly removed from graph (Count)
system.cpu.squashedNonSpecRemoved                  14                       # Number of squashed non-spec instructions that were removed (Count)
system.cpu.numIssuedDist::samples            14280927                       # Number of insts issued each cycle (Count)
system.cpu.numIssuedDist::mean               3.081116                       # Number of insts issued each cycle (Count)
system.cpu.numIssuedDist::stdev              1.719624                       # Number of insts issued each cycle (Count)
system.cpu.numIssuedDist::underflows                0      0.00%      0.00% # Number of insts issued each cycle (Count)
system.cpu.numIssuedDist::0                   1475653     10.33%     10.33% # Number of insts issued each cycle (Count)
system.cpu.numIssuedDist::1                   1556477     10.90%     21.23% # Number of insts issued each cycle (Count)
system.cpu.numIssuedDist::2                   1802922     12.62%     33.86% # Number of insts issued each cycle (Count)
system.cpu.numIssuedDist::3                   3151807     22.07%     55.93% # Number of insts issued each cycle (Count)
system.cpu.numIssuedDist::4                   3136327     21.96%     77.89% # Number of insts issued each cycle (Count)
system.cpu.numIssuedDist::5                   2108308     14.76%     92.65% # Number of insts issued each cycle (Count)
system.cpu.numIssuedDist::6                   1049433      7.35%    100.00% # Number of insts issued each cycle (Count)
system.cpu.numIssuedDist::overflows                 0      0.00%    100.00% # Number of insts issued each cycle (Count)
system.cpu.numIssuedDist::min_value                 0                       # Number of insts issued each cycle (Count)
system.cpu.numIssuedDist::max_value                 6                       # Number of insts issued each cycle (Count)
system.cpu.numIssuedDist::total              14280927                       # Number of insts issued each cycle (Count)
system.cpu.statFuBusy::No_OpClass                   0      0.00%      0.00% # attempts to use FU when none available (Count)
system.cpu.statFuBusy::IntAlu                       0      0.00%      0.00% # attempts to use FU when none available (Count)
system.cpu.statFuBusy::IntMult                      0      0.00%      0.00% # attempts to use FU when none available (Count)
system.cpu.statFuBusy::IntDiv                       0      0.00%      0.00% # attempts to use FU when none available (Count)
system.cpu.statFuBusy::FloatAdd                     0      0.00%      0.00% # attempts to use FU when none available (Count)
system.cpu.statFuBusy::FloatCmp                     0      0.00%      0.00% # attempts to use FU when none available (Count)
system.cpu.statFuBusy::FloatCvt                     0      0.00%      0.00% # attempts to use FU when none available (Count)
system.cpu.statFuBusy::FloatMult                    0      0.00%      0.00% # attempts to use FU when none available (Count)
system.cpu.statFuBusy::FloatMultAcc                 0      0.00%      0.00% # attempts to use FU when none available (Count)
system.cpu.statFuBusy::FloatDiv                     0      0.00%      0.00% # attempts to use FU when none available (Count)
system.cpu.statFuBusy::FloatMisc                    0      0.00%      0.00% # attempts to use FU when none available (Count)
system.cpu.statFuBusy::FloatSqrt                    0      0.00%      0.00% # attempts to use FU when none available (Count)
system.cpu.statFuBusy::SimdAdd                      0      0.00%      0.00% # attempts to use FU when none available (Count)
system.cpu.statFuBusy::SimdAddAcc                   0      0.00%      0.00% # attempts to use FU when none available (Count)
system.cpu.statFuBusy::SimdAlu                     20      0.06%      0.06% # attempts to use FU when none available (Count)
system.cpu.statFuBusy::SimdCmp                      0      0.00%      0.06% # attempts to use FU when none available (Count)
system.cpu.statFuBusy::SimdCvt                      0      0.00%      0.06% # attempts to use FU when none available (Count)
system.cpu.statFuBusy::SimdMisc                     1      0.00%      0.06% # attempts to use FU when none available (Count)
system.cpu.statFuBusy::SimdMult                     0      0.00%      0.06% # attempts to use FU when none available (Count)
system.cpu.statFuBusy::SimdMultAcc                  0      0.00%      0.06% # attempts to use FU when none available (Count)
system.cpu.statFuBusy::SimdShift                    0      0.00%      0.06% # attempts to use FU when none available (Count)
system.cpu.statFuBusy::SimdShiftAcc                 0      0.00%      0.06% # attempts to use FU when none available (Count)
system.cpu.statFuBusy::SimdDiv                      0      0.00%      0.06% # attempts to use FU when none available (Count)
system.cpu.statFuBusy::SimdSqrt                     0      0.00%      0.06% # attempts to use FU when none available (Count)
system.cpu.statFuBusy::SimdFloatAdd                 0      0.00%      0.06% # attempts to use FU when none available (Count)
system.cpu.statFuBusy::SimdFloatAlu                 0      0.00%      0.06% # attempts to use FU when none available (Count)
system.cpu.statFuBusy::SimdFloatCmp                 0      0.00%      0.06% # attempts to use FU when none available (Count)
system.cpu.statFuBusy::SimdFloatCvt                 0      0.00%      0.06% # attempts to use FU when none available (Count)
system.cpu.statFuBusy::SimdFloatDiv                 0      0.00%      0.06% # attempts to use FU when none available (Count)
system.cpu.statFuBusy::SimdFloatMisc                0      0.00%      0.06% # attempts to use FU when none available (Count)
system.cpu.statFuBusy::SimdFloatMult                0      0.00%      0.06% # attempts to use FU when none available (Count)
system.cpu.statFuBusy::SimdFloatMultAcc             0      0.00%      0.06% # attempts to use FU when none available (Count)
system.cpu.statFuBusy::SimdFloatSqrt                0      0.00%      0.06% # attempts to use FU when none available (Count)
system.cpu.statFuBusy::SimdReduceAdd                0      0.00%      0.06% # attempts to use FU when none available (Count)
system.cpu.statFuBusy::SimdReduceAlu                0      0.00%      0.06% # attempts to use FU when none available (Count)
system.cpu.statFuBusy::SimdReduceCmp                0      0.00%      0.06% # attempts to use FU when none available (Count)
system.cpu.statFuBusy::SimdFloatReduceAdd            0      0.00%      0.06% # attempts to use FU when none available (Count)
system.cpu.statFuBusy::SimdFloatReduceCmp            0      0.00%      0.06% # attempts to use FU when none available (Count)
system.cpu.statFuBusy::SimdAes                      0      0.00%      0.06% # attempts to use FU when none available (Count)
system.cpu.statFuBusy::SimdAesMix                   0      0.00%      0.06% # attempts to use FU when none available (Count)
system.cpu.statFuBusy::SimdSha1Hash                 0      0.00%      0.06% # attempts to use FU when none available (Count)
system.cpu.statFuBusy::SimdSha1Hash2                0      0.00%      0.06% # attempts to use FU when none available (Count)
system.cpu.statFuBusy::SimdSha256Hash               0      0.00%      0.06% # attempts to use FU when none available (Count)
system.cpu.statFuBusy::SimdSha256Hash2              0      0.00%      0.06% # attempts to use FU when none available (Count)
system.cpu.statFuBusy::SimdShaSigma2                0      0.00%      0.06% # attempts to use FU when none available (Count)
system.cpu.statFuBusy::SimdShaSigma3                0      0.00%      0.06% # attempts to use FU when none available (Count)
system.cpu.statFuBusy::SimdPredAlu                  0      0.00%      0.06% # attempts to use FU when none available (Count)
system.cpu.statFuBusy::MemRead                  33253     99.87%     99.93% # attempts to use FU when none available (Count)
system.cpu.statFuBusy::MemWrite                    18      0.05%     99.98% # attempts to use FU when none available (Count)
system.cpu.statFuBusy::FloatMemRead                 3      0.01%     99.99% # attempts to use FU when none available (Count)
system.cpu.statFuBusy::FloatMemWrite                2      0.01%    100.00% # attempts to use FU when none available (Count)
system.cpu.statFuBusy::IprAccess                    0      0.00%    100.00% # attempts to use FU when none available (Count)
system.cpu.statFuBusy::InstPrefetch                 0      0.00%    100.00% # attempts to use FU when none available (Count)
system.cpu.statIssuedInstType_0::No_OpClass          828      0.00%      0.00% # Number of instructions issued per FU type, per thread (Count)
system.cpu.statIssuedInstType_0::IntAlu      26067451     59.24%     59.24% # Number of instructions issued per FU type, per thread (Count)
system.cpu.statIssuedInstType_0::IntMult        15153      0.03%     59.28% # Number of instructions issued per FU type, per thread (Count)
system.cpu.statIssuedInstType_0::IntDiv            95      0.00%     59.28% # Number of instructions issued per FU type, per thread (Count)
system.cpu.statIssuedInstType_0::FloatAdd           28      0.00%     59.28% # Number of instructions issued per FU type, per thread (Count)
system.cpu.statIssuedInstType_0::FloatCmp            0      0.00%     59.28% # Number of instructions issued per FU type, per thread (Count)
system.cpu.statIssuedInstType_0::FloatCvt           16      0.00%     59.28% # Number of instructions issued per FU type, per thread (Count)
system.cpu.statIssuedInstType_0::FloatMult            0      0.00%     59.28% # Number of instructions issued per FU type, per thread (Count)
system.cpu.statIssuedInstType_0::FloatMultAcc            0      0.00%     59.28% # Number of instructions issued per FU type, per thread (Count)
system.cpu.statIssuedInstType_0::FloatDiv            0      0.00%     59.28% # Number of instructions issued per FU type, per thread (Count)
system.cpu.statIssuedInstType_0::FloatMisc            0      0.00%     59.28% # Number of instructions issued per FU type, per thread (Count)
system.cpu.statIssuedInstType_0::FloatSqrt            0      0.00%     59.28% # Number of instructions issued per FU type, per thread (Count)
system.cpu.statIssuedInstType_0::SimdAdd            4      0.00%     59.28% # Number of instructions issued per FU type, per thread (Count)
system.cpu.statIssuedInstType_0::SimdAddAcc            0      0.00%     59.28% # Number of instructions issued per FU type, per thread (Count)
system.cpu.statIssuedInstType_0::SimdAlu           86      0.00%     59.28% # Number of instructions issued per FU type, per thread (Count)
system.cpu.statIssuedInstType_0::SimdCmp            0      0.00%     59.28% # Number of instructions issued per FU type, per thread (Count)
system.cpu.statIssuedInstType_0::SimdCvt           88      0.00%     59.28% # Number of instructions issued per FU type, per thread (Count)
system.cpu.statIssuedInstType_0::SimdMisc          184      0.00%     59.28% # Number of instructions issued per FU type, per thread (Count)
system.cpu.statIssuedInstType_0::SimdMult            0      0.00%     59.28% # Number of instructions issued per FU type, per thread (Count)
system.cpu.statIssuedInstType_0::SimdMultAcc            0      0.00%     59.28% # Number of instructions issued per FU type, per thread (Count)
system.cpu.statIssuedInstType_0::SimdShift            0      0.00%     59.28% # Number of instructions issued per FU type, per thread (Count)
system.cpu.statIssuedInstType_0::SimdShiftAcc            0      0.00%     59.28% # Number of instructions issued per FU type, per thread (Count)
system.cpu.statIssuedInstType_0::SimdDiv            0      0.00%     59.28% # Number of instructions issued per FU type, per thread (Count)
system.cpu.statIssuedInstType_0::SimdSqrt            0      0.00%     59.28% # Number of instructions issued per FU type, per thread (Count)
system.cpu.statIssuedInstType_0::SimdFloatAdd            0      0.00%     59.28% # Number of instructions issued per FU type, per thread (Count)
system.cpu.statIssuedInstType_0::SimdFloatAlu            0      0.00%     59.28% # Number of instructions issued per FU type, per thread (Count)
system.cpu.statIssuedInstType_0::SimdFloatCmp            0      0.00%     59.28% # Number of instructions issued per FU type, per thread (Count)
system.cpu.statIssuedInstType_0::SimdFloatCvt            0      0.00%     59.28% # Number of instructions issued per FU type, per thread (Count)
system.cpu.statIssuedInstType_0::SimdFloatDiv            0      0.00%     59.28% # Number of instructions issued per FU type, per thread (Count)
system.cpu.statIssuedInstType_0::SimdFloatMisc            0      0.00%     59.28% # Number of instructions issued per FU type, per thread (Count)
system.cpu.statIssuedInstType_0::SimdFloatMult            0      0.00%     59.28% # Number of instructions issued per FU type, per thread (Count)
system.cpu.statIssuedInstType_0::SimdFloatMultAcc            0      0.00%     59.28% # Number of instructions issued per FU type, per thread (Count)
system.cpu.statIssuedInstType_0::SimdFloatSqrt            0      0.00%     59.28% # Number of instructions issued per FU type, per thread (Count)
system.cpu.statIssuedInstType_0::SimdReduceAdd            0      0.00%     59.28% # Number of instructions issued per FU type, per thread (Count)
system.cpu.statIssuedInstType_0::SimdReduceAlu            0      0.00%     59.28% # Number of instructions issued per FU type, per thread (Count)
system.cpu.statIssuedInstType_0::SimdReduceCmp            0      0.00%     59.28% # Number of instructions issued per FU type, per thread (Count)
system.cpu.statIssuedInstType_0::SimdFloatReduceAdd            0      0.00%     59.28% # Number of instructions issued per FU type, per thread (Count)
system.cpu.statIssuedInstType_0::SimdFloatReduceCmp            0      0.00%     59.28% # Number of instructions issued per FU type, per thread (Count)
system.cpu.statIssuedInstType_0::SimdAes            0      0.00%     59.28% # Number of instructions issued per FU type, per thread (Count)
system.cpu.statIssuedInstType_0::SimdAesMix            0      0.00%     59.28% # Number of instructions issued per FU type, per thread (Count)
system.cpu.statIssuedInstType_0::SimdSha1Hash            0      0.00%     59.28% # Number of instructions issued per FU type, per thread (Count)
system.cpu.statIssuedInstType_0::SimdSha1Hash2            0      0.00%     59.28% # Number of instructions issued per FU type, per thread (Count)
system.cpu.statIssuedInstType_0::SimdSha256Hash            0      0.00%     59.28% # Number of instructions issued per FU type, per thread (Count)
system.cpu.statIssuedInstType_0::SimdSha256Hash2            0      0.00%     59.28% # Number of instructions issued per FU type, per thread (Count)
system.cpu.statIssuedInstType_0::SimdShaSigma2            0      0.00%     59.28% # Number of instructions issued per FU type, per thread (Count)
system.cpu.statIssuedInstType_0::SimdShaSigma3            0      0.00%     59.28% # Number of instructions issued per FU type, per thread (Count)
system.cpu.statIssuedInstType_0::SimdPredAlu            0      0.00%     59.28% # Number of instructions issued per FU type, per thread (Count)
system.cpu.statIssuedInstType_0::MemRead     14425196     32.78%     92.06% # Number of instructions issued per FU type, per thread (Count)
system.cpu.statIssuedInstType_0::MemWrite      3491867      7.94%    100.00% # Number of instructions issued per FU type, per thread (Count)
system.cpu.statIssuedInstType_0::FloatMemRead          114      0.00%    100.00% # Number of instructions issued per FU type, per thread (Count)
system.cpu.statIssuedInstType_0::FloatMemWrite           78      0.00%    100.00% # Number of instructions issued per FU type, per thread (Count)
system.cpu.statIssuedInstType_0::IprAccess            0      0.00%    100.00% # Number of instructions issued per FU type, per thread (Count)
system.cpu.statIssuedInstType_0::InstPrefetch            0      0.00%    100.00% # Number of instructions issued per FU type, per thread (Count)
system.cpu.statIssuedInstType_0::total       44001188                       # Number of instructions issued per FU type, per thread (Count)
system.cpu.issueRate                         3.075539                       # Inst issue rate ((Count/Cycle))
system.cpu.fuBusy                               33297                       # FU busy when requested (Count)
system.cpu.fuBusyRate                        0.000757                       # FU busy rate (busy events/executed inst) ((Count/Count))
system.cpu.intInstQueueReads                102315709                       # Number of integer instruction queue reads (Count)
system.cpu.intInstQueueWrites                48548155                       # Number of integer instruction queue writes (Count)
system.cpu.intInstQueueWakeupAccesses        43648578                       # Number of integer instruction queue wakeup accesses (Count)
system.cpu.fpInstQueueReads                      1342                       # Number of floating instruction queue reads (Count)
system.cpu.fpInstQueueWrites                      696                       # Number of floating instruction queue writes (Count)
system.cpu.fpInstQueueWakeupAccesses              644                       # Number of floating instruction queue wakeup accesses (Count)
system.cpu.vecInstQueueReads                        0                       # Number of vector instruction queue reads (Count)
system.cpu.vecInstQueueWrites                       0                       # Number of vector instruction queue writes (Count)
system.cpu.vecInstQueueWakeupAccesses               0                       # Number of vector instruction queue wakeup accesses (Count)
system.cpu.intAluAccesses                    44032973                       # Number of integer alu accesses (Count)
system.cpu.fpAluAccesses                          684                       # Number of floating point alu accesses (Count)
system.cpu.vecAluAccesses                           0                       # Number of vector alu accesses (Count)
system.cpu.numInsts                          43766677                       # Number of executed instructions (Count)
system.cpu.numLoadInsts                      14299761                       # Number of load instructions executed (Count)
system.cpu.numSquashedInsts                    234512                       # Number of squashed instructions skipped in execute (Count)
system.cpu.numSwp                                   0                       # Number of swp insts executed (Count)
system.cpu.numNop                                   0                       # Number of nop insts executed (Count)
system.cpu.numRefs                           17775070                       # Number of memory reference insts executed (Count)
system.cpu.numBranches                        2622502                       # Number of branches executed (Count)
system.cpu.numStoreInsts                      3475309                       # Number of stores executed (Count)
system.cpu.numRate                           3.059147                       # Inst execution rate ((Count/Cycle))
system.cpu.timesIdled                             647                       # Number of times that the entire CPU went into an idle state and unscheduled itself (Count)
system.cpu.idleCycles                           25896                       # Total number of cycles that the CPU has spent unscheduled due to idling (Cycle)
system.cpu.committedInsts                    26871651                       # Number of Instructions Simulated (Count)
system.cpu.committedOps                      40946462                       # Number of Ops (including micro ops) Simulated (Count)
system.cpu.cpi                               0.532413                       # CPI: Cycles Per Instruction ((Cycle/Count))
system.cpu.totalCpi                          0.532413                       # CPI: Total CPI of All Threads ((Cycle/Count))
system.cpu.ipc                               1.878240                       # IPC: Instructions Per Cycle ((Count/Cycle))
system.cpu.totalIpc                          1.878240                       # IPC: Total IPC of All Threads ((Count/Cycle))
system.cpu.intRegfileReads                   45679696                       # Number of integer regfile reads (Count)
system.cpu.intRegfileWrites                  35012336                       # Number of integer regfile writes (Count)
system.cpu.fpRegfileReads                        1002                       # Number of floating regfile reads (Count)
system.cpu.fpRegfileWrites                        507                       # Number of floating regfile writes (Count)
system.cpu.ccRegfileReads                    13033485                       # number of cc regfile reads (Count)
system.cpu.ccRegfileWrites                   13445462                       # number of cc regfile writes (Count)
system.cpu.miscRegfileReads                  24568164                       # number of misc regfile reads (Count)
system.cpu.miscRegfileWrites                        9                       # number of misc regfile writes (Count)
system.cpu.MemDepUnit__0.insertedLoads       14640554                       # Number of loads inserted to the mem dependence unit. (Count)
system.cpu.MemDepUnit__0.insertedStores       3555780                       # Number of stores inserted to the mem dependence unit. (Count)
system.cpu.MemDepUnit__0.conflictingLoads      3654110                       # Number of conflicting loads. (Count)
system.cpu.MemDepUnit__0.conflictingStores         5318                       # Number of conflicting stores. (Count)
system.cpu.MemDepUnit__1.insertedLoads              0                       # Number of loads inserted to the mem dependence unit. (Count)
system.cpu.MemDepUnit__1.insertedStores             0                       # Number of stores inserted to the mem dependence unit. (Count)
system.cpu.MemDepUnit__1.conflictingLoads            0                       # Number of conflicting loads. (Count)
system.cpu.MemDepUnit__1.conflictingStores            0                       # Number of conflicting stores. (Count)
system.cpu.MemDepUnit__2.insertedLoads              0                       # Number of loads inserted to the mem dependence unit. (Count)
system.cpu.MemDepUnit__2.insertedStores             0                       # Number of stores inserted to the mem dependence unit. (Count)
system.cpu.MemDepUnit__2.conflictingLoads            0                       # Number of conflicting loads. (Count)
system.cpu.MemDepUnit__2.conflictingStores            0                       # Number of conflicting stores. (Count)
system.cpu.MemDepUnit__3.insertedLoads              0                       # Number of loads inserted to the mem dependence unit. (Count)
system.cpu.MemDepUnit__3.insertedStores             0                       # Number of stores inserted to the mem dependence unit. (Count)
system.cpu.MemDepUnit__3.conflictingLoads            0                       # Number of conflicting loads. (Count)
system.cpu.MemDepUnit__3.conflictingStores            0                       # Number of conflicting stores. (Count)
system.cpu.branchPred.lookups                 2890622                       # Number of BP lookups (Count)
system.cpu.branchPred.condPredicted           2865701                       # Number of conditional branches predicted (Count)
system.cpu.branchPred.condIncorrect            125147                       # Number of conditional branches incorrect (Count)
system.cpu.branchPred.BTBLookups              2149357                       # Number of BTB lookups (Count)
system.cpu.branchPred.BTBHits                 2148883                       # Number of BTB hits (Count)
system.cpu.branchPred.BTBHitRatio            0.999779                       # BTB Hit Ratio (Ratio)
system.cpu.branchPred.RASUsed                    5488                       # Number of times the RAS was used to get a target. (Count)
system.cpu.branchPred.RASIncorrect                  3                       # Number of incorrect RAS predictions. (Count)
system.cpu.branchPred.indirectLookups             385                       # Number of indirect predictor lookups. (Count)
system.cpu.branchPred.indirectHits                 96                       # Number of indirect target hits. (Count)
system.cpu.branchPred.indirectMisses              289                       # Number of indirect misses. (Count)
system.cpu.branchPred.indirectMispredicted           55                       # Number of mispredicted indirect branches. (Count)
system.cpu.commit.commitSquashedInsts         3800626                       # The number of squashed insts skipped by commit (Count)
system.cpu.commit.commitNonSpecStalls              10                       # The number of times commit has been forced to stall to communicate backwards (Count)
system.cpu.commit.branchMispredicts            125209                       # The number of times a branch was mispredicted (Count)
system.cpu.commit.numCommittedDist::samples     13779320                       # Number of insts commited each cycle (Count)
system.cpu.commit.numCommittedDist::mean     2.971588                       # Number of insts commited each cycle (Count)
system.cpu.commit.numCommittedDist::stdev     2.385281                       # Number of insts commited each cycle (Count)
system.cpu.commit.numCommittedDist::underflows            0      0.00%      0.00% # Number of insts commited each cycle (Count)
system.cpu.commit.numCommittedDist::0         3347690     24.30%     24.30% # Number of insts commited each cycle (Count)
system.cpu.commit.numCommittedDist::1         2186756     15.87%     40.16% # Number of insts commited each cycle (Count)
system.cpu.commit.numCommittedDist::2          282950      2.05%     42.22% # Number of insts commited each cycle (Count)
system.cpu.commit.numCommittedDist::3         2532874     18.38%     60.60% # Number of insts commited each cycle (Count)
system.cpu.commit.numCommittedDist::4          142217      1.03%     61.63% # Number of insts commited each cycle (Count)
system.cpu.commit.numCommittedDist::5         1694682     12.30%     73.93% # Number of insts commited each cycle (Count)
system.cpu.commit.numCommittedDist::6         3592151     26.07%    100.00% # Number of insts commited each cycle (Count)
system.cpu.commit.numCommittedDist::overflows            0      0.00%    100.00% # Number of insts commited each cycle (Count)
system.cpu.commit.numCommittedDist::min_value            0                       # Number of insts commited each cycle (Count)
system.cpu.commit.numCommittedDist::max_value            6                       # Number of insts commited each cycle (Count)
system.cpu.commit.numCommittedDist::total     13779320                       # Number of insts commited each cycle (Count)
system.cpu.commit.instsCommitted             26871651                       # Number of instructions committed (Count)
system.cpu.commit.opsCommitted               40946462                       # Number of ops (including micro ops) committed (Count)
system.cpu.commit.memRefs                    16555533                       # Number of memory references committed (Count)
system.cpu.commit.loads                      13339506                       # Number of loads committed (Count)
system.cpu.commit.amos                              0                       # Number of atomic instructions committed (Count)
system.cpu.commit.membars                           0                       # Number of memory barriers committed (Count)
system.cpu.commit.branches                    2557251                       # Number of branches committed (Count)
system.cpu.commit.vectorInstructions                0                       # Number of committed Vector instructions. (Count)
system.cpu.commit.floating                        616                       # Number of committed floating point instructions. (Count)
system.cpu.commit.integer                    40945640                       # Number of committed integer instructions. (Count)
system.cpu.commit.functionCalls                  5222                       # Number of function calls committed. (Count)
system.cpu.commit.committedInstType_0::No_OpClass          296      0.00%      0.00% # Class of committed instruction (Count)
system.cpu.commit.committedInstType_0::IntAlu     24375094     59.53%     59.53% # Class of committed instruction (Count)
system.cpu.commit.committedInstType_0::IntMult        15050      0.04%     59.57% # Class of committed instruction (Count)
system.cpu.commit.committedInstType_0::IntDiv           85      0.00%     59.57% # Class of committed instruction (Count)
system.cpu.commit.committedInstType_0::FloatAdd           28      0.00%     59.57% # Class of committed instruction (Count)
system.cpu.commit.committedInstType_0::FloatCmp            0      0.00%     59.57% # Class of committed instruction (Count)
system.cpu.commit.committedInstType_0::FloatCvt           16      0.00%     59.57% # Class of committed instruction (Count)
system.cpu.commit.committedInstType_0::FloatMult            0      0.00%     59.57% # Class of committed instruction (Count)
system.cpu.commit.committedInstType_0::FloatMultAcc            0      0.00%     59.57% # Class of committed instruction (Count)
system.cpu.commit.committedInstType_0::FloatDiv            0      0.00%     59.57% # Class of committed instruction (Count)
system.cpu.commit.committedInstType_0::FloatMisc            0      0.00%     59.57% # Class of committed instruction (Count)
system.cpu.commit.committedInstType_0::FloatSqrt            0      0.00%     59.57% # Class of committed instruction (Count)
system.cpu.commit.committedInstType_0::SimdAdd            4      0.00%     59.57% # Class of committed instruction (Count)
system.cpu.commit.committedInstType_0::SimdAddAcc            0      0.00%     59.57% # Class of committed instruction (Count)
system.cpu.commit.committedInstType_0::SimdAlu           84      0.00%     59.57% # Class of committed instruction (Count)
system.cpu.commit.committedInstType_0::SimdCmp            0      0.00%     59.57% # Class of committed instruction (Count)
system.cpu.commit.committedInstType_0::SimdCvt           88      0.00%     59.57% # Class of committed instruction (Count)
system.cpu.commit.committedInstType_0::SimdMisc          184      0.00%     59.57% # Class of committed instruction (Count)
system.cpu.commit.committedInstType_0::SimdMult            0      0.00%     59.57% # Class of committed instruction (Count)
system.cpu.commit.committedInstType_0::SimdMultAcc            0      0.00%     59.57% # Class of committed instruction (Count)
system.cpu.commit.committedInstType_0::SimdShift            0      0.00%     59.57% # Class of committed instruction (Count)
system.cpu.commit.committedInstType_0::SimdShiftAcc            0      0.00%     59.57% # Class of committed instruction (Count)
system.cpu.commit.committedInstType_0::SimdDiv            0      0.00%     59.57% # Class of committed instruction (Count)
system.cpu.commit.committedInstType_0::SimdSqrt            0      0.00%     59.57% # Class of committed instruction (Count)
system.cpu.commit.committedInstType_0::SimdFloatAdd            0      0.00%     59.57% # Class of committed instruction (Count)
system.cpu.commit.committedInstType_0::SimdFloatAlu            0      0.00%     59.57% # Class of committed instruction (Count)
system.cpu.commit.committedInstType_0::SimdFloatCmp            0      0.00%     59.57% # Class of committed instruction (Count)
system.cpu.commit.committedInstType_0::SimdFloatCvt            0      0.00%     59.57% # Class of committed instruction (Count)
system.cpu.commit.committedInstType_0::SimdFloatDiv            0      0.00%     59.57% # Class of committed instruction (Count)
system.cpu.commit.committedInstType_0::SimdFloatMisc            0      0.00%     59.57% # Class of committed instruction (Count)
system.cpu.commit.committedInstType_0::SimdFloatMult            0      0.00%     59.57% # Class of committed instruction (Count)
system.cpu.commit.committedInstType_0::SimdFloatMultAcc            0      0.00%     59.57% # Class of committed instruction (Count)
system.cpu.commit.committedInstType_0::SimdFloatSqrt            0      0.00%     59.57% # Class of committed instruction (Count)
system.cpu.commit.committedInstType_0::SimdReduceAdd            0      0.00%     59.57% # Class of committed instruction (Count)
system.cpu.commit.committedInstType_0::SimdReduceAlu            0      0.00%     59.57% # Class of committed instruction (Count)
system.cpu.commit.committedInstType_0::SimdReduceCmp            0      0.00%     59.57% # Class of committed instruction (Count)
system.cpu.commit.committedInstType_0::SimdFloatReduceAdd            0      0.00%     59.57% # Class of committed instruction (Count)
system.cpu.commit.committedInstType_0::SimdFloatReduceCmp            0      0.00%     59.57% # Class of committed instruction (Count)
system.cpu.commit.committedInstType_0::SimdAes            0      0.00%     59.57% # Class of committed instruction (Count)
system.cpu.commit.committedInstType_0::SimdAesMix            0      0.00%     59.57% # Class of committed instruction (Count)
system.cpu.commit.committedInstType_0::SimdSha1Hash            0      0.00%     59.57% # Class of committed instruction (Count)
system.cpu.commit.committedInstType_0::SimdSha1Hash2            0      0.00%     59.57% # Class of committed instruction (Count)
system.cpu.commit.committedInstType_0::SimdSha256Hash            0      0.00%     59.57% # Class of committed instruction (Count)
system.cpu.commit.committedInstType_0::SimdSha256Hash2            0      0.00%     59.57% # Class of committed instruction (Count)
system.cpu.commit.committedInstType_0::SimdShaSigma2            0      0.00%     59.57% # Class of committed instruction (Count)
system.cpu.commit.committedInstType_0::SimdShaSigma3            0      0.00%     59.57% # Class of committed instruction (Count)
system.cpu.commit.committedInstType_0::SimdPredAlu            0      0.00%     59.57% # Class of committed instruction (Count)
system.cpu.commit.committedInstType_0::MemRead     13339406     32.58%     92.15% # Class of committed instruction (Count)
system.cpu.commit.committedInstType_0::MemWrite      3215975      7.85%    100.00% # Class of committed instruction (Count)
system.cpu.commit.committedInstType_0::FloatMemRead          100      0.00%    100.00% # Class of committed instruction (Count)
system.cpu.commit.committedInstType_0::FloatMemWrite           52      0.00%    100.00% # Class of committed instruction (Count)
system.cpu.commit.committedInstType_0::IprAccess            0      0.00%    100.00% # Class of committed instruction (Count)
system.cpu.commit.committedInstType_0::InstPrefetch            0      0.00%    100.00% # Class of committed instruction (Count)
system.cpu.commit.committedInstType_0::total     40946462                       # Class of committed instruction (Count)
system.cpu.commit.commitEligibleSamples       3592151                       # number cycles where commit BW limit reached (Cycle)
system.cpu.dcache.demandHits::cpu.data        8003673                       # number of demand (read+write) hits (Count)
system.cpu.dcache.demandHits::total           8003673                       # number of demand (read+write) hits (Count)
system.cpu.dcache.overallHits::cpu.data       8003673                       # number of overall hits (Count)
system.cpu.dcache.overallHits::total          8003673                       # number of overall hits (Count)
system.cpu.dcache.demandMisses::cpu.data         5799                       # number of demand (read+write) misses (Count)
system.cpu.dcache.demandMisses::total            5799                       # number of demand (read+write) misses (Count)
system.cpu.dcache.overallMisses::cpu.data         5799                       # number of overall misses (Count)
system.cpu.dcache.overallMisses::total           5799                       # number of overall misses (Count)
system.cpu.dcache.demandMissLatency::cpu.data    346371000                       # number of demand (read+write) miss ticks (Tick)
system.cpu.dcache.demandMissLatency::total    346371000                       # number of demand (read+write) miss ticks (Tick)
system.cpu.dcache.overallMissLatency::cpu.data    346371000                       # number of overall miss ticks (Tick)
system.cpu.dcache.overallMissLatency::total    346371000                       # number of overall miss ticks (Tick)
system.cpu.dcache.demandAccesses::cpu.data      8009472                       # number of demand (read+write) accesses (Count)
system.cpu.dcache.demandAccesses::total       8009472                       # number of demand (read+write) accesses (Count)
system.cpu.dcache.overallAccesses::cpu.data      8009472                       # number of overall (read+write) accesses (Count)
system.cpu.dcache.overallAccesses::total      8009472                       # number of overall (read+write) accesses (Count)
system.cpu.dcache.demandMissRate::cpu.data     0.000724                       # miss rate for demand accesses (Ratio)
system.cpu.dcache.demandMissRate::total      0.000724                       # miss rate for demand accesses (Ratio)
system.cpu.dcache.overallMissRate::cpu.data     0.000724                       # miss rate for overall accesses (Ratio)
system.cpu.dcache.overallMissRate::total     0.000724                       # miss rate for overall accesses (Ratio)
system.cpu.dcache.demandAvgMissLatency::cpu.data 59729.436110                       # average overall miss latency in ticks ((Tick/Count))
system.cpu.dcache.demandAvgMissLatency::total 59729.436110                       # average overall miss latency in ticks ((Tick/Count))
system.cpu.dcache.overallAvgMissLatency::cpu.data 59729.436110                       # average overall miss latency ((Tick/Count))
system.cpu.dcache.overallAvgMissLatency::total 59729.436110                       # average overall miss latency ((Tick/Count))
system.cpu.dcache.blockedCycles::no_mshrs          221                       # number of cycles access was blocked (Cycle)
system.cpu.dcache.blockedCycles::no_targets            0                       # number of cycles access was blocked (Cycle)
system.cpu.dcache.blockedCauses::no_mshrs           10                       # number of times access was blocked (Count)
system.cpu.dcache.blockedCauses::no_targets            0                       # number of times access was blocked (Count)
system.cpu.dcache.avgBlocked::no_mshrs      22.100000                       # average number of cycles each access was blocked ((Cycle/Count))
system.cpu.dcache.avgBlocked::no_targets          nan                       # average number of cycles each access was blocked ((Cycle/Count))
system.cpu.dcache.writebacks::writebacks          420                       # number of writebacks (Count)
system.cpu.dcache.writebacks::total               420                       # number of writebacks (Count)
system.cpu.dcache.demandMshrHits::cpu.data         3945                       # number of demand (read+write) MSHR hits (Count)
system.cpu.dcache.demandMshrHits::total          3945                       # number of demand (read+write) MSHR hits (Count)
system.cpu.dcache.overallMshrHits::cpu.data         3945                       # number of overall MSHR hits (Count)
system.cpu.dcache.overallMshrHits::total         3945                       # number of overall MSHR hits (Count)
system.cpu.dcache.demandMshrMisses::cpu.data         1854                       # number of demand (read+write) MSHR misses (Count)
system.cpu.dcache.demandMshrMisses::total         1854                       # number of demand (read+write) MSHR misses (Count)
system.cpu.dcache.overallMshrMisses::cpu.data         1854                       # number of overall MSHR misses (Count)
system.cpu.dcache.overallMshrMisses::total         1854                       # number of overall MSHR misses (Count)
system.cpu.dcache.demandMshrMissLatency::cpu.data    102365500                       # number of demand (read+write) MSHR miss ticks (Tick)
system.cpu.dcache.demandMshrMissLatency::total    102365500                       # number of demand (read+write) MSHR miss ticks (Tick)
system.cpu.dcache.overallMshrMissLatency::cpu.data    102365500                       # number of overall MSHR miss ticks (Tick)
system.cpu.dcache.overallMshrMissLatency::total    102365500                       # number of overall MSHR miss ticks (Tick)
system.cpu.dcache.demandMshrMissRate::cpu.data     0.000231                       # mshr miss ratio for demand accesses (Ratio)
system.cpu.dcache.demandMshrMissRate::total     0.000231                       # mshr miss ratio for demand accesses (Ratio)
system.cpu.dcache.overallMshrMissRate::cpu.data     0.000231                       # mshr miss ratio for overall accesses (Ratio)
system.cpu.dcache.overallMshrMissRate::total     0.000231                       # mshr miss ratio for overall accesses (Ratio)
system.cpu.dcache.demandAvgMshrMissLatency::cpu.data 55213.322546                       # average overall mshr miss latency ((Tick/Count))
system.cpu.dcache.demandAvgMshrMissLatency::total 55213.322546                       # average overall mshr miss latency ((Tick/Count))
system.cpu.dcache.overallAvgMshrMissLatency::cpu.data 55213.322546                       # average overall mshr miss latency ((Tick/Count))
system.cpu.dcache.overallAvgMshrMissLatency::total 55213.322546                       # average overall mshr miss latency ((Tick/Count))
system.cpu.dcache.replacements                   1853                       # number of replacements (Count)
system.cpu.dcache.ReadReq.hits::cpu.data      4787985                       # number of ReadReq hits (Count)
system.cpu.dcache.ReadReq.hits::total         4787985                       # number of ReadReq hits (Count)
system.cpu.dcache.ReadReq.misses::cpu.data         5460                       # number of ReadReq misses (Count)
system.cpu.dcache.ReadReq.misses::total          5460                       # number of ReadReq misses (Count)
system.cpu.dcache.ReadReq.missLatency::cpu.data    333909000                       # number of ReadReq miss ticks (Tick)
system.cpu.dcache.ReadReq.missLatency::total    333909000                       # number of ReadReq miss ticks (Tick)
system.cpu.dcache.ReadReq.accesses::cpu.data      4793445                       # number of ReadReq accesses(hits+misses) (Count)
system.cpu.dcache.ReadReq.accesses::total      4793445                       # number of ReadReq accesses(hits+misses) (Count)
system.cpu.dcache.ReadReq.missRate::cpu.data     0.001139                       # miss rate for ReadReq accesses (Ratio)
system.cpu.dcache.ReadReq.missRate::total     0.001139                       # miss rate for ReadReq accesses (Ratio)
system.cpu.dcache.ReadReq.avgMissLatency::cpu.data 61155.494505                       # average ReadReq miss latency ((Tick/Count))
system.cpu.dcache.ReadReq.avgMissLatency::total 61155.494505                       # average ReadReq miss latency ((Tick/Count))
system.cpu.dcache.ReadReq.mshrHits::cpu.data         3935                       # number of ReadReq MSHR hits (Count)
system.cpu.dcache.ReadReq.mshrHits::total         3935                       # number of ReadReq MSHR hits (Count)
system.cpu.dcache.ReadReq.mshrMisses::cpu.data         1525                       # number of ReadReq MSHR misses (Count)
system.cpu.dcache.ReadReq.mshrMisses::total         1525                       # number of ReadReq MSHR misses (Count)
system.cpu.dcache.ReadReq.mshrMissLatency::cpu.data     90411500                       # number of ReadReq MSHR miss ticks (Tick)
system.cpu.dcache.ReadReq.mshrMissLatency::total     90411500                       # number of ReadReq MSHR miss ticks (Tick)
system.cpu.dcache.ReadReq.mshrMissRate::cpu.data     0.000318                       # mshr miss rate for ReadReq accesses (Ratio)
system.cpu.dcache.ReadReq.mshrMissRate::total     0.000318                       # mshr miss rate for ReadReq accesses (Ratio)
system.cpu.dcache.ReadReq.avgMshrMissLatency::cpu.data 59286.229508                       # average ReadReq mshr miss latency ((Tick/Count))
system.cpu.dcache.ReadReq.avgMshrMissLatency::total 59286.229508                       # average ReadReq mshr miss latency ((Tick/Count))
system.cpu.dcache.WriteReq.hits::cpu.data      3215688                       # number of WriteReq hits (Count)
system.cpu.dcache.WriteReq.hits::total        3215688                       # number of WriteReq hits (Count)
system.cpu.dcache.WriteReq.misses::cpu.data          339                       # number of WriteReq misses (Count)
system.cpu.dcache.WriteReq.misses::total          339                       # number of WriteReq misses (Count)
system.cpu.dcache.WriteReq.missLatency::cpu.data     12462000                       # number of WriteReq miss ticks (Tick)
system.cpu.dcache.WriteReq.missLatency::total     12462000                       # number of WriteReq miss ticks (Tick)
system.cpu.dcache.WriteReq.accesses::cpu.data      3216027                       # number of WriteReq accesses(hits+misses) (Count)
system.cpu.dcache.WriteReq.accesses::total      3216027                       # number of WriteReq accesses(hits+misses) (Count)
system.cpu.dcache.WriteReq.missRate::cpu.data     0.000105                       # miss rate for WriteReq accesses (Ratio)
system.cpu.dcache.WriteReq.missRate::total     0.000105                       # miss rate for WriteReq accesses (Ratio)
system.cpu.dcache.WriteReq.avgMissLatency::cpu.data 36761.061947                       # average WriteReq miss latency ((Tick/Count))
system.cpu.dcache.WriteReq.avgMissLatency::total 36761.061947                       # average WriteReq miss latency ((Tick/Count))
system.cpu.dcache.WriteReq.mshrHits::cpu.data           10                       # number of WriteReq MSHR hits (Count)
system.cpu.dcache.WriteReq.mshrHits::total           10                       # number of WriteReq MSHR hits (Count)
system.cpu.dcache.WriteReq.mshrMisses::cpu.data          329                       # number of WriteReq MSHR misses (Count)
system.cpu.dcache.WriteReq.mshrMisses::total          329                       # number of WriteReq MSHR misses (Count)
system.cpu.dcache.WriteReq.mshrMissLatency::cpu.data     11954000                       # number of WriteReq MSHR miss ticks (Tick)
system.cpu.dcache.WriteReq.mshrMissLatency::total     11954000                       # number of WriteReq MSHR miss ticks (Tick)
system.cpu.dcache.WriteReq.mshrMissRate::cpu.data     0.000102                       # mshr miss rate for WriteReq accesses (Ratio)
system.cpu.dcache.WriteReq.mshrMissRate::total     0.000102                       # mshr miss rate for WriteReq accesses (Ratio)
system.cpu.dcache.WriteReq.avgMshrMissLatency::cpu.data 36334.346505                       # average WriteReq mshr miss latency ((Tick/Count))
system.cpu.dcache.WriteReq.avgMshrMissLatency::total 36334.346505                       # average WriteReq mshr miss latency ((Tick/Count))
system.cpu.dcache.power_state.pwrStateResidencyTicks::UNDEFINED   7327587500                       # Cumulative time (in ticks) in various power states (Tick)
system.cpu.dcache.tags.tagsInUse                   64                       # Average ticks per tags in use ((Tick/Count))
system.cpu.dcache.tags.totalRefs              6290798                       # Total number of references to valid blocks. (Count)
system.cpu.dcache.tags.sampledRefs               1853                       # Sample count of references to valid blocks. (Count)
system.cpu.dcache.tags.avgRefs            3394.926066                       # Average number of references to valid blocks. ((Count/Count))
system.cpu.dcache.tags.warmupTick             8650000                       # The tick when the warmup percentage was hit. (Tick)
system.cpu.dcache.tags.occupancies::cpu.data           64                       # Average occupied blocks per tick, per requestor ((Count/Tick))
system.cpu.dcache.tags.avgOccs::cpu.data            1                       # Average percentage of cache occupancy ((Ratio/Tick))
system.cpu.dcache.tags.avgOccs::total               1                       # Average percentage of cache occupancy ((Ratio/Tick))
system.cpu.dcache.tags.occupanciesTaskId::1024           64                       # Occupied blocks per task id (Count)
system.cpu.dcache.tags.ageTaskId_1024::0           24                       # Occupied blocks per task id, per block age (Count)
system.cpu.dcache.tags.ageTaskId_1024::3           40                       # Occupied blocks per task id, per block age (Count)
system.cpu.dcache.tags.ratioOccsTaskId::1024            1                       # Ratio of occupied blocks and all blocks, per task id (Ratio)
system.cpu.dcache.tags.tagAccesses           16020797                       # Number of tag accesses (Count)
system.cpu.dcache.tags.dataAccesses          16020797                       # Number of data accesses (Count)
system.cpu.dcache.tags.power_state.pwrStateResidencyTicks::UNDEFINED   7327587500                       # Cumulative time (in ticks) in various power states (Tick)
system.cpu.decode.idleCycles                  3620507                       # Number of cycles decode is idle (Cycle)
system.cpu.decode.blockedCycles               1377252                       # Number of cycles decode is blocked (Cycle)
system.cpu.decode.runCycles                   8357915                       # Number of cycles decode is running (Cycle)
system.cpu.decode.unblockCycles                799822                       # Number of cycles decode is unblocking (Cycle)
system.cpu.decode.squashCycles                 125431                       # Number of cycles decode is squashing (Cycle)
system.cpu.decode.branchResolved              2131629                       # Number of times decode resolved a branch (Count)
system.cpu.decode.branchMispred                   135                       # Number of times decode detected a branch misprediction (Count)
system.cpu.decode.decodedInsts               46369534                       # Number of instructions handled by decode (Count)
system.cpu.decode.squashedInsts                   438                       # Number of squashed instructions handled by decode (Count)
system.cpu.fetch.icacheStallCycles            4467228                       # Number of cycles fetch is stalled on an Icache miss (Cycle)
system.cpu.fetch.insts                       30841878                       # Number of instructions fetch has processed (Count)
system.cpu.fetch.branches                     2890622                       # Number of branches that fetch encountered (Count)
system.cpu.fetch.predictedBranches            2154467                       # Number of branches that fetch has predicted taken (Count)
system.cpu.fetch.cycles                       9686445                       # Number of cycles fetch has run and was not squashing or blocked (Cycle)
system.cpu.fetch.squashCycles                  251126                       # Number of cycles fetch has spent squashing (Cycle)
system.cpu.fetch.miscStallCycles                  215                       # Number of cycles fetch has spent waiting on interrupts, or bad addresses, or out of MSHRs (Cycle)
system.cpu.fetch.pendingTrapStallCycles          1437                       # Number of stall cycles due to pending traps (Cycle)
system.cpu.fetch.icacheWaitRetryStallCycles           39                       # Number of stall cycles due to full MSHR (Cycle)
system.cpu.fetch.cacheLines                   4430204                       # Number of cache lines fetched (Count)
system.cpu.fetch.icacheSquashes                 62105                       # Number of outstanding Icache misses that were squashed (Count)
system.cpu.fetch.nisnDist::samples           14280927                       # Number of instructions fetched each cycle (Total) (Count)
system.cpu.fetch.nisnDist::mean              3.286376                       # Number of instructions fetched each cycle (Total) (Count)
system.cpu.fetch.nisnDist::stdev             2.549612                       # Number of instructions fetched each cycle (Total) (Count)
system.cpu.fetch.nisnDist::underflows               0      0.00%      0.00% # Number of instructions fetched each cycle (Total) (Count)
system.cpu.fetch.nisnDist::0                  4734108     33.15%     33.15% # Number of instructions fetched each cycle (Total) (Count)
system.cpu.fetch.nisnDist::1                    80356      0.56%     33.71% # Number of instructions fetched each cycle (Total) (Count)
system.cpu.fetch.nisnDist::2                     8744      0.06%     33.77% # Number of instructions fetched each cycle (Total) (Count)
system.cpu.fetch.nisnDist::3                  2108609     14.77%     48.54% # Number of instructions fetched each cycle (Total) (Count)
system.cpu.fetch.nisnDist::4                  1427341      9.99%     58.53% # Number of instructions fetched each cycle (Total) (Count)
system.cpu.fetch.nisnDist::5                   731147      5.12%     63.65% # Number of instructions fetched each cycle (Total) (Count)
system.cpu.fetch.nisnDist::6                  5190622     36.35%    100.00% # Number of instructions fetched each cycle (Total) (Count)
system.cpu.fetch.nisnDist::overflows                0      0.00%    100.00% # Number of instructions fetched each cycle (Total) (Count)
system.cpu.fetch.nisnDist::min_value                0                       # Number of instructions fetched each cycle (Total) (Count)
system.cpu.fetch.nisnDist::max_value                6                       # Number of instructions fetched each cycle (Total) (Count)
system.cpu.fetch.nisnDist::total             14280927                       # Number of instructions fetched each cycle (Total) (Count)
system.cpu.fetch.branchRate                  0.202045                       # Number of branch fetches per cycle (Ratio)
system.cpu.fetch.rate                        2.155746                       # Number of inst fetches per cycle ((Count/Cycle))
system.cpu.icache.demandHits::cpu.inst        4429128                       # number of demand (read+write) hits (Count)
system.cpu.icache.demandHits::total           4429128                       # number of demand (read+write) hits (Count)
system.cpu.icache.overallHits::cpu.inst       4429128                       # number of overall hits (Count)
system.cpu.icache.overallHits::total          4429128                       # number of overall hits (Count)
system.cpu.icache.demandMisses::cpu.inst         1076                       # number of demand (read+write) misses (Count)
system.cpu.icache.demandMisses::total            1076                       # number of demand (read+write) misses (Count)
system.cpu.icache.overallMisses::cpu.inst         1076                       # number of overall misses (Count)
system.cpu.icache.overallMisses::total           1076                       # number of overall misses (Count)
system.cpu.icache.demandMissLatency::cpu.inst     38891999                       # number of demand (read+write) miss ticks (Tick)
system.cpu.icache.demandMissLatency::total     38891999                       # number of demand (read+write) miss ticks (Tick)
system.cpu.icache.overallMissLatency::cpu.inst     38891999                       # number of overall miss ticks (Tick)
system.cpu.icache.overallMissLatency::total     38891999                       # number of overall miss ticks (Tick)
system.cpu.icache.demandAccesses::cpu.inst      4430204                       # number of demand (read+write) accesses (Count)
system.cpu.icache.demandAccesses::total       4430204                       # number of demand (read+write) accesses (Count)
system.cpu.icache.overallAccesses::cpu.inst      4430204                       # number of overall (read+write) accesses (Count)
system.cpu.icache.overallAccesses::total      4430204                       # number of overall (read+write) accesses (Count)
system.cpu.icache.demandMissRate::cpu.inst     0.000243                       # miss rate for demand accesses (Ratio)
system.cpu.icache.demandMissRate::total      0.000243                       # miss rate for demand accesses (Ratio)
system.cpu.icache.overallMissRate::cpu.inst     0.000243                       # miss rate for overall accesses (Ratio)
system.cpu.icache.overallMissRate::total     0.000243                       # miss rate for overall accesses (Ratio)
system.cpu.icache.demandAvgMissLatency::cpu.inst 36144.980483                       # average overall miss latency in ticks ((Tick/Count))
system.cpu.icache.demandAvgMissLatency::total 36144.980483                       # average overall miss latency in ticks ((Tick/Count))
system.cpu.icache.overallAvgMissLatency::cpu.inst 36144.980483                       # average overall miss latency ((Tick/Count))
system.cpu.icache.overallAvgMissLatency::total 36144.980483                       # average overall miss latency ((Tick/Count))
system.cpu.icache.blockedCycles::no_mshrs          219                       # number of cycles access was blocked (Cycle)
system.cpu.icache.blockedCycles::no_targets            0                       # number of cycles access was blocked (Cycle)
system.cpu.icache.blockedCauses::no_mshrs            3                       # number of times access was blocked (Count)
system.cpu.icache.blockedCauses::no_targets            0                       # number of times access was blocked (Count)
system.cpu.icache.avgBlocked::no_mshrs             73                       # average number of cycles each access was blocked ((Cycle/Count))
system.cpu.icache.avgBlocked::no_targets          nan                       # average number of cycles each access was blocked ((Cycle/Count))
system.cpu.icache.demandMshrHits::cpu.inst          103                       # number of demand (read+write) MSHR hits (Count)
system.cpu.icache.demandMshrHits::total           103                       # number of demand (read+write) MSHR hits (Count)
system.cpu.icache.overallMshrHits::cpu.inst          103                       # number of overall MSHR hits (Count)
system.cpu.icache.overallMshrHits::total          103                       # number of overall MSHR hits (Count)
system.cpu.icache.demandMshrMisses::cpu.inst          973                       # number of demand (read+write) MSHR misses (Count)
system.cpu.icache.demandMshrMisses::total          973                       # number of demand (read+write) MSHR misses (Count)
system.cpu.icache.overallMshrMisses::cpu.inst          973                       # number of overall MSHR misses (Count)
system.cpu.icache.overallMshrMisses::total          973                       # number of overall MSHR misses (Count)
system.cpu.icache.demandMshrMissLatency::cpu.inst     33046000                       # number of demand (read+write) MSHR miss ticks (Tick)
system.cpu.icache.demandMshrMissLatency::total     33046000                       # number of demand (read+write) MSHR miss ticks (Tick)
system.cpu.icache.overallMshrMissLatency::cpu.inst     33046000                       # number of overall MSHR miss ticks (Tick)
system.cpu.icache.overallMshrMissLatency::total     33046000                       # number of overall MSHR miss ticks (Tick)
system.cpu.icache.demandMshrMissRate::cpu.inst     0.000220                       # mshr miss ratio for demand accesses (Ratio)
system.cpu.icache.demandMshrMissRate::total     0.000220                       # mshr miss ratio for demand accesses (Ratio)
system.cpu.icache.overallMshrMissRate::cpu.inst     0.000220                       # mshr miss ratio for overall accesses (Ratio)
system.cpu.icache.overallMshrMissRate::total     0.000220                       # mshr miss ratio for overall accesses (Ratio)
system.cpu.icache.demandAvgMshrMissLatency::cpu.inst 33963.001028                       # average overall mshr miss latency ((Tick/Count))
system.cpu.icache.demandAvgMshrMissLatency::total 33963.001028                       # average overall mshr miss latency ((Tick/Count))
system.cpu.icache.overallAvgMshrMissLatency::cpu.inst 33963.001028                       # average overall mshr miss latency ((Tick/Count))
system.cpu.icache.overallAvgMshrMissLatency::total 33963.001028                       # average overall mshr miss latency ((Tick/Count))
system.cpu.icache.replacements                    972                       # number of replacements (Count)
system.cpu.icache.ReadReq.hits::cpu.inst      4429128                       # number of ReadReq hits (Count)
system.cpu.icache.ReadReq.hits::total         4429128                       # number of ReadReq hits (Count)
system.cpu.icache.ReadReq.misses::cpu.inst         1076                       # number of ReadReq misses (Count)
system.cpu.icache.ReadReq.misses::total          1076                       # number of ReadReq misses (Count)
system.cpu.icache.ReadReq.missLatency::cpu.inst     38891999                       # number of ReadReq miss ticks (Tick)
system.cpu.icache.ReadReq.missLatency::total     38891999                       # number of ReadReq miss ticks (Tick)
system.cpu.icache.ReadReq.accesses::cpu.inst      4430204                       # number of ReadReq accesses(hits+misses) (Count)
system.cpu.icache.ReadReq.accesses::total      4430204                       # number of ReadReq accesses(hits+misses) (Count)
system.cpu.icache.ReadReq.missRate::cpu.inst     0.000243                       # miss rate for ReadReq accesses (Ratio)
system.cpu.icache.ReadReq.missRate::total     0.000243                       # miss rate for ReadReq accesses (Ratio)
system.cpu.icache.ReadReq.avgMissLatency::cpu.inst 36144.980483                       # average ReadReq miss latency ((Tick/Count))
system.cpu.icache.ReadReq.avgMissLatency::total 36144.980483                       # average ReadReq miss latency ((Tick/Count))
system.cpu.icache.ReadReq.mshrHits::cpu.inst          103                       # number of ReadReq MSHR hits (Count)
system.cpu.icache.ReadReq.mshrHits::total          103                       # number of ReadReq MSHR hits (Count)
system.cpu.icache.ReadReq.mshrMisses::cpu.inst          973                       # number of ReadReq MSHR misses (Count)
system.cpu.icache.ReadReq.mshrMisses::total          973                       # number of ReadReq MSHR misses (Count)
system.cpu.icache.ReadReq.mshrMissLatency::cpu.inst     33046000                       # number of ReadReq MSHR miss ticks (Tick)
system.cpu.icache.ReadReq.mshrMissLatency::total     33046000                       # number of ReadReq MSHR miss ticks (Tick)
system.cpu.icache.ReadReq.mshrMissRate::cpu.inst     0.000220                       # mshr miss rate for ReadReq accesses (Ratio)
system.cpu.icache.ReadReq.mshrMissRate::total     0.000220                       # mshr miss rate for ReadReq accesses (Ratio)
system.cpu.icache.ReadReq.avgMshrMissLatency::cpu.inst 33963.001028                       # average ReadReq mshr miss latency ((Tick/Count))
system.cpu.icache.ReadReq.avgMshrMissLatency::total 33963.001028                       # average ReadReq mshr miss latency ((Tick/Count))
system.cpu.icache.power_state.pwrStateResidencyTicks::UNDEFINED   7327587500                       # Cumulative time (in ticks) in various power states (Tick)
system.cpu.icache.tags.tagsInUse            63.999909                       # Average ticks per tags in use ((Tick/Count))
system.cpu.icache.tags.totalRefs              4418749                       # Total number of references to valid blocks. (Count)
system.cpu.icache.tags.sampledRefs                973                       # Sample count of references to valid blocks. (Count)
system.cpu.icache.tags.avgRefs            4541.365879                       # Average number of references to valid blocks. ((Count/Count))
system.cpu.icache.tags.warmupTick            11010000                       # The tick when the warmup percentage was hit. (Tick)
system.cpu.icache.tags.occupancies::cpu.inst    63.999909                       # Average occupied blocks per tick, per requestor ((Count/Tick))
system.cpu.icache.tags.avgOccs::cpu.inst     0.999999                       # Average percentage of cache occupancy ((Ratio/Tick))
system.cpu.icache.tags.avgOccs::total        0.999999                       # Average percentage of cache occupancy ((Ratio/Tick))
system.cpu.icache.tags.occupanciesTaskId::1024           64                       # Occupied blocks per task id (Count)
system.cpu.icache.tags.ageTaskId_1024::0           40                       # Occupied blocks per task id, per block age (Count)
system.cpu.icache.tags.ageTaskId_1024::3           24                       # Occupied blocks per task id, per block age (Count)
system.cpu.icache.tags.ratioOccsTaskId::1024            1                       # Ratio of occupied blocks and all blocks, per task id (Ratio)
system.cpu.icache.tags.tagAccesses            8861381                       # Number of tag accesses (Count)
system.cpu.icache.tags.dataAccesses           8861381                       # Number of data accesses (Count)
system.cpu.icache.tags.power_state.pwrStateResidencyTicks::UNDEFINED   7327587500                       # Cumulative time (in ticks) in various power states (Tick)
system.cpu.iew.idleCycles                           0                       # Number of cycles IEW is idle (Cycle)
system.cpu.iew.squashCycles                    125431                       # Number of cycles IEW is squashing (Cycle)
system.cpu.iew.blockCycles                     447611                       # Number of cycles IEW is blocking (Cycle)
system.cpu.iew.unblockCycles                     1512                       # Number of cycles IEW is unblocking (Cycle)
system.cpu.iew.dispatchedInsts               44747564                       # Number of instructions dispatched to IQ (Count)
system.cpu.iew.dispSquashedInsts                  573                       # Number of squashed instructions skipped by dispatch (Count)
system.cpu.iew.dispLoadInsts                 14640554                       # Number of dispatched load instructions (Count)
system.cpu.iew.dispStoreInsts                 3555780                       # Number of dispatched store instructions (Count)
system.cpu.iew.dispNonSpecInsts                    16                       # Number of dispatched non-speculative instructions (Count)
system.cpu.iew.iqFullEvents                       507                       # Number of times the IQ has become full, causing a stall (Count)
system.cpu.iew.lsqFullEvents                      431                       # Number of times the LSQ has become full, causing a stall (Count)
system.cpu.iew.memOrderViolationEvents            194                       # Number of memory order violations (Count)
system.cpu.iew.predictedTakenIncorrect          62820                       # Number of branches that were predicted taken incorrectly (Count)
system.cpu.iew.predictedNotTakenIncorrect        63271                       # Number of branches that were predicted not taken incorrectly (Count)
system.cpu.iew.branchMispredicts               126091                       # Number of branch mispredicts detected at execute (Count)
system.cpu.iew.instsToCommit                 43708805                       # Cumulative count of insts sent to commit (Count)
system.cpu.iew.writebackCount                43649222                       # Cumulative count of insts written-back (Count)
system.cpu.iew.producerInst                  37372363                       # Number of instructions producing a value (Count)
system.cpu.iew.consumerInst                  40187414                       # Number of instructions consuming a value (Count)
system.cpu.iew.wbRate                        3.050937                       # Insts written-back per cycle ((Count/Cycle))
system.cpu.iew.wbFanout                      0.929952                       # Average fanout of values written-back ((Count/Count))
system.cpu.interrupts.clk_domain.clock           8000                       # Clock period in ticks (Tick)
system.cpu.lsq0.forwLoads                     9506277                       # Number of loads that had data forwarded from stores (Count)
system.cpu.lsq0.squashedLoads                 1301046                       # Number of loads squashed (Count)
system.cpu.lsq0.ignoredResponses                39263                       # Number of memory responses ignored because the instruction is squashed (Count)
system.cpu.lsq0.memOrderViolation                 194                       # Number of memory ordering violations (Count)
system.cpu.lsq0.squashedStores                 339754                       # Number of stores squashed (Count)
system.cpu.lsq0.rescheduledLoads                    8                       # Number of loads that were rescheduled (Count)
system.cpu.lsq0.blockedByCache                      8                       # Number of times an access to memory failed due to the cache being blocked (Count)
system.cpu.lsq0.loadToUse::samples           13339506                       # Distribution of cycle latency between the first time a load is issued and its completion (Unspecified)
system.cpu.lsq0.loadToUse::mean              2.450619                       # Distribution of cycle latency between the first time a load is issued and its completion (Unspecified)
system.cpu.lsq0.loadToUse::stdev             2.379090                       # Distribution of cycle latency between the first time a load is issued and its completion (Unspecified)
system.cpu.lsq0.loadToUse::0-9               13335663     99.97%     99.97% # Distribution of cycle latency between the first time a load is issued and its completion (Unspecified)
system.cpu.lsq0.loadToUse::10-19                   34      0.00%     99.97% # Distribution of cycle latency between the first time a load is issued and its completion (Unspecified)
system.cpu.lsq0.loadToUse::20-29                  345      0.00%     99.97% # Distribution of cycle latency between the first time a load is issued and its completion (Unspecified)
system.cpu.lsq0.loadToUse::30-39                   20      0.00%     99.97% # Distribution of cycle latency between the first time a load is issued and its completion (Unspecified)
system.cpu.lsq0.loadToUse::40-49                    2      0.00%     99.97% # Distribution of cycle latency between the first time a load is issued and its completion (Unspecified)
system.cpu.lsq0.loadToUse::50-59                    6      0.00%     99.97% # Distribution of cycle latency between the first time a load is issued and its completion (Unspecified)
system.cpu.lsq0.loadToUse::60-69                    6      0.00%     99.97% # Distribution of cycle latency between the first time a load is issued and its completion (Unspecified)
system.cpu.lsq0.loadToUse::70-79                   32      0.00%     99.97% # Distribution of cycle latency between the first time a load is issued and its completion (Unspecified)
system.cpu.lsq0.loadToUse::80-89                   53      0.00%     99.97% # Distribution of cycle latency between the first time a load is issued and its completion (Unspecified)
system.cpu.lsq0.loadToUse::90-99                  105      0.00%     99.98% # Distribution of cycle latency between the first time a load is issued and its completion (Unspecified)
system.cpu.lsq0.loadToUse::100-109                313      0.00%     99.98% # Distribution of cycle latency between the first time a load is issued and its completion (Unspecified)
system.cpu.lsq0.loadToUse::110-119                401      0.00%     99.98% # Distribution of cycle latency between the first time a load is issued and its completion (Unspecified)
system.cpu.lsq0.loadToUse::120-129                533      0.00%     99.99% # Distribution of cycle latency between the first time a load is issued and its completion (Unspecified)
system.cpu.lsq0.loadToUse::130-139               1624      0.01%    100.00% # Distribution of cycle latency between the first time a load is issued and its completion (Unspecified)
system.cpu.lsq0.loadToUse::140-149                 94      0.00%    100.00% # Distribution of cycle latency between the first time a load is issued and its completion (Unspecified)
system.cpu.lsq0.loadToUse::150-159                 40      0.00%    100.00% # Distribution of cycle latency between the first time a load is issued and its completion (Unspecified)
system.cpu.lsq0.loadToUse::160-169                147      0.00%    100.00% # Distribution of cycle latency between the first time a load is issued and its completion (Unspecified)
system.cpu.lsq0.loadToUse::170-179                  6      0.00%    100.00% # Distribution of cycle latency between the first time a load is issued and its completion (Unspecified)
system.cpu.lsq0.loadToUse::180-189                  1      0.00%    100.00% # Distribution of cycle latency between the first time a load is issued and its completion (Unspecified)
system.cpu.lsq0.loadToUse::190-199                 19      0.00%    100.00% # Distribution of cycle latency between the first time a load is issued and its completion (Unspecified)
system.cpu.lsq0.loadToUse::200-209                  4      0.00%    100.00% # Distribution of cycle latency between the first time a load is issued and its completion (Unspecified)
system.cpu.lsq0.loadToUse::230-239                  1      0.00%    100.00% # Distribution of cycle latency between the first time a load is issued and its completion (Unspecified)
system.cpu.lsq0.loadToUse::240-249                  1      0.00%    100.00% # Distribution of cycle latency between the first time a load is issued and its completion (Unspecified)
system.cpu.lsq0.loadToUse::250-259                  5      0.00%    100.00% # Distribution of cycle latency between the first time a load is issued and its completion (Unspecified)
system.cpu.lsq0.loadToUse::260-269                  2      0.00%    100.00% # Distribution of cycle latency between the first time a load is issued and its completion (Unspecified)
system.cpu.lsq0.loadToUse::270-279                  1      0.00%    100.00% # Distribution of cycle latency between the first time a load is issued and its completion (Unspecified)
system.cpu.lsq0.loadToUse::280-289                  3      0.00%    100.00% # Distribution of cycle latency between the first time a load is issued and its completion (Unspecified)
system.cpu.lsq0.loadToUse::overflows               45      0.00%    100.00% # Distribution of cycle latency between the first time a load is issued and its completion (Unspecified)
system.cpu.lsq0.loadToUse::min_value                2                       # Distribution of cycle latency between the first time a load is issued and its completion (Unspecified)
system.cpu.lsq0.loadToUse::max_value              697                       # Distribution of cycle latency between the first time a load is issued and its completion (Unspecified)
system.cpu.lsq0.loadToUse::total             13339506                       # Distribution of cycle latency between the first time a load is issued and its completion (Unspecified)
system.cpu.mmu.dtb.rdAccesses                14299745                       # TLB accesses on read requests (Count)
system.cpu.mmu.dtb.wrAccesses                 3475309                       # TLB accesses on write requests (Count)
system.cpu.mmu.dtb.rdMisses                        42                       # TLB misses on read requests (Count)
system.cpu.mmu.dtb.wrMisses                         9                       # TLB misses on write requests (Count)
system.cpu.mmu.dtb.walker.power_state.pwrStateResidencyTicks::UNDEFINED   7327587500                       # Cumulative time (in ticks) in various power states (Tick)
system.cpu.mmu.itb.rdAccesses                       0                       # TLB accesses on read requests (Count)
system.cpu.mmu.itb.wrAccesses                 4430420                       # TLB accesses on write requests (Count)
system.cpu.mmu.itb.rdMisses                         0                       # TLB misses on read requests (Count)
system.cpu.mmu.itb.wrMisses                       248                       # TLB misses on write requests (Count)
system.cpu.mmu.itb.walker.power_state.pwrStateResidencyTicks::UNDEFINED   7327587500                       # Cumulative time (in ticks) in various power states (Tick)
system.cpu.power_state.pwrStateResidencyTicks::ON   7327587500                       # Cumulative time (in ticks) in various power states (Tick)
[...]
system.mem_ctrls.dram.numReads::cpu.inst          440                       # Number of read requests responded to by this memory (Count)
system.mem_ctrls.dram.numReads::cpu.data         1392                       # Number of read requests responded to by this memory (Count)
system.mem_ctrls.dram.numReads::total            1832                       # Number of read requests responded to by this memory (Count)
system.mem_ctrls.dram.numWrites::writebacks          124                       # Number of write requests responded to by this memory (Count)
system.mem_ctrls.dram.numWrites::total            124                       # Number of write requests responded to by this memory (Count)
system.mem_ctrls.dram.bwRead::cpu.inst        3932704                       # Total read bandwidth from this memory ((Byte/Second))
system.mem_ctrls.dram.bwRead::cpu.data       12441645                       # Total read bandwidth from this memory ((Byte/Second))
system.mem_ctrls.dram.bwRead::total          16374349                       # Total read bandwidth from this memory ((Byte/Second))
system.mem_ctrls.dram.bwInstRead::cpu.inst      3932704                       # Instruction read bandwidth from this memory ((Byte/Second))
system.mem_ctrls.dram.bwInstRead::total       3932704                       # Instruction read bandwidth from this memory ((Byte/Second))
system.mem_ctrls.dram.bwWrite::writebacks      1108307                       # Write bandwidth from this memory ((Byte/Second))
system.mem_ctrls.dram.bwWrite::total          1108307                       # Write bandwidth from this memory ((Byte/Second))
system.mem_ctrls.dram.bwTotal::writebacks      1108307                       # Total bandwidth to/from this memory ((Byte/Second))
system.mem_ctrls.dram.bwTotal::cpu.inst       3932704                       # Total bandwidth to/from this memory ((Byte/Second))
system.mem_ctrls.dram.bwTotal::cpu.data      12441645                       # Total bandwidth to/from this memory ((Byte/Second))
system.mem_ctrls.dram.bwTotal::total         17482656                       # Total bandwidth to/from this memory ((Byte/Second))
system.mem_ctrls.dram.readBursts                 1806                       # Number of DRAM read bursts (Count)
system.mem_ctrls.dram.writeBursts                 132                       # Number of DRAM write bursts (Count)
system.mem_ctrls.dram.perBankRdBursts::0          181                       # Per bank write bursts (Count)
system.mem_ctrls.dram.perBankRdBursts::1          175                       # Per bank write bursts (Count)
system.mem_ctrls.dram.perBankRdBursts::2          102                       # Per bank write bursts (Count)
system.mem_ctrls.dram.perBankRdBursts::3          154                       # Per bank write bursts (Count)
system.mem_ctrls.dram.perBankRdBursts::4          161                       # Per bank write bursts (Count)
system.mem_ctrls.dram.perBankRdBursts::5           43                       # Per bank write bursts (Count)
system.mem_ctrls.dram.perBankRdBursts::6           23                       # Per bank write bursts (Count)
system.mem_ctrls.dram.perBankRdBursts::7           19                       # Per bank write bursts (Count)
system.mem_ctrls.dram.perBankRdBursts::8          138                       # Per bank write bursts (Count)
system.mem_ctrls.dram.perBankRdBursts::9           62                       # Per bank write bursts (Count)
system.mem_ctrls.dram.perBankRdBursts::10          128                       # Per bank write bursts (Count)
system.mem_ctrls.dram.perBankRdBursts::11          143                       # Per bank write bursts (Count)
system.mem_ctrls.dram.perBankRdBursts::12          143                       # Per bank write bursts (Count)
system.mem_ctrls.dram.perBankRdBursts::13           82                       # Per bank write bursts (Count)
system.mem_ctrls.dram.perBankRdBursts::14          141                       # Per bank write bursts (Count)
system.mem_ctrls.dram.perBankRdBursts::15          111                       # Per bank write bursts (Count)
system.mem_ctrls.dram.perBankWrBursts::0            2                       # Per bank write bursts (Count)
system.mem_ctrls.dram.perBankWrBursts::1           24                       # Per bank write bursts (Count)
system.mem_ctrls.dram.perBankWrBursts::2            1                       # Per bank write bursts (Count)
system.mem_ctrls.dram.perBankWrBursts::3            6                       # Per bank write bursts (Count)
system.mem_ctrls.dram.perBankWrBursts::4            1                       # Per bank write bursts (Count)
system.mem_ctrls.dram.perBankWrBursts::5            0                       # Per bank write bursts (Count)
system.mem_ctrls.dram.perBankWrBursts::6            3                       # Per bank write bursts (Count)
system.mem_ctrls.dram.perBankWrBursts::7            0                       # Per bank write bursts (Count)
system.mem_ctrls.dram.perBankWrBursts::8           53                       # Per bank write bursts (Count)
system.mem_ctrls.dram.perBankWrBursts::9           37                       # Per bank write bursts (Count)
system.mem_ctrls.dram.perBankWrBursts::10            0                       # Per bank write bursts (Count)
system.mem_ctrls.dram.perBankWrBursts::11            0                       # Per bank write bursts (Count)
system.mem_ctrls.dram.perBankWrBursts::12            0                       # Per bank write bursts (Count)
system.mem_ctrls.dram.perBankWrBursts::13            3                       # Per bank write bursts (Count)
system.mem_ctrls.dram.perBankWrBursts::14            1                       # Per bank write bursts (Count)
system.mem_ctrls.dram.perBankWrBursts::15            1                       # Per bank write bursts (Count)
system.mem_ctrls.dram.totQLat                12442250                       # Total ticks spent queuing (Tick)
system.mem_ctrls.dram.totBusLat               9030000                       # Total ticks spent in databus transfers (Tick)
system.mem_ctrls.dram.totMemAccLat           46304750                       # Total ticks spent from burst creation until serviced by the DRAM (Tick)
system.mem_ctrls.dram.avgQLat                 6889.40                       # Average queueing delay per DRAM burst ((Tick/Count))
system.mem_ctrls.dram.avgBusLat               5000.00                       # Average bus latency per DRAM burst ((Tick/Count))
system.mem_ctrls.dram.avgMemAccLat           25639.40                       # Average memory access latency per DRAM burst ((Tick/Count))
system.mem_ctrls.dram.readRowHits                1541                       # Number of row buffer hits during reads (Count)
system.mem_ctrls.dram.writeRowHits                100                       # Number of row buffer hits during writes (Count)
system.mem_ctrls.dram.readRowHitRate            85.33                       # Row buffer hit rate for reads (Ratio)
system.mem_ctrls.dram.writeRowHitRate           75.76                       # Row buffer hit rate for writes (Ratio)
system.mem_ctrls.dram.bytesPerActivate::samples          292                       # Bytes accessed per row activation (Byte)
system.mem_ctrls.dram.bytesPerActivate::mean   416.876712                       # Bytes accessed per row activation (Byte)
system.mem_ctrls.dram.bytesPerActivate::gmean   251.393143                       # Bytes accessed per row activation (Byte)
system.mem_ctrls.dram.bytesPerActivate::stdev   373.161028                       # Bytes accessed per row activation (Byte)
system.mem_ctrls.dram.bytesPerActivate::0-127           78     26.71%     26.71% # Bytes accessed per row activation (Byte)
system.mem_ctrls.dram.bytesPerActivate::128-255           62     21.23%     47.95% # Bytes accessed per row activation (Byte)
system.mem_ctrls.dram.bytesPerActivate::256-383           33     11.30%     59.25% # Bytes accessed per row activation (Byte)
system.mem_ctrls.dram.bytesPerActivate::384-511           16      5.48%     64.73% # Bytes accessed per row activation (Byte)
system.mem_ctrls.dram.bytesPerActivate::512-639           12      4.11%     68.84% # Bytes accessed per row activation (Byte)
system.mem_ctrls.dram.bytesPerActivate::640-767           14      4.79%     73.63% # Bytes accessed per row activation (Byte)
system.mem_ctrls.dram.bytesPerActivate::768-895           16      5.48%     79.11% # Bytes accessed per row activation (Byte)
system.mem_ctrls.dram.bytesPerActivate::896-1023            4      1.37%     80.48% # Bytes accessed per row activation (Byte)
system.mem_ctrls.dram.bytesPerActivate::1024-1151           57     19.52%    100.00% # Bytes accessed per row activation (Byte)
system.mem_ctrls.dram.bytesPerActivate::total          292                       # Bytes accessed per row activation (Byte)
system.mem_ctrls.dram.bytesRead                115584                       # Total bytes read (Byte)
system.mem_ctrls.dram.bytesWritten               8448                       # Total bytes written (Byte)
system.mem_ctrls.dram.avgRdBW               16.141962                       # Average DRAM read bandwidth in MiBytes/s ((Byte/Second))
system.mem_ctrls.dram.avgWrBW                1.179811                       # Average DRAM write bandwidth in MiBytes/s ((Byte/Second))
system.mem_ctrls.dram.peakBW                 12800.00                       # Theoretical peak bandwidth in MiByte/s ((Byte/Second))
system.mem_ctrls.dram.busUtil                    0.14                       # Data bus utilization in percentage (Ratio)
system.mem_ctrls.dram.busUtilRead                0.13                       # Data bus utilization in percentage for reads (Ratio)
system.mem_ctrls.dram.busUtilWrite               0.01                       # Data bus utilization in percentage for writes (Ratio)
system.mem_ctrls.dram.pageHitRate               84.67                       # Row buffer hit rate, read and write combined (Ratio)
system.mem_ctrls.dram.power_state.pwrStateResidencyTicks::UNDEFINED   7334644000                       # Cumulative time (in ticks) in various power states (Tick)
system.mem_ctrls.dram.rank0.actEnergy         1071000                       # Energy for activate commands per rank (pJ) (Joule)
system.mem_ctrls.dram.rank0.preEnergy          546480                       # Energy for precharge commands per rank (pJ) (Joule)
system.mem_ctrls.dram.rank0.readEnergy        6283200                       # Energy for read commands per rank (pJ) (Joule)
system.mem_ctrls.dram.rank0.writeEnergy        193140                       # Energy for write commands per rank (pJ) (Joule)
system.mem_ctrls.dram.rank0.refreshEnergy 564854160.000000                       # Energy for refresh commands per rank (pJ) (Joule)
system.mem_ctrls.dram.rank0.actBackEnergy    161557380                       # Energy for active background per rank (pJ) (Joule)
system.mem_ctrls.dram.rank0.preBackEnergy   2614572000                       # Energy for precharge background per rank (pJ) (Joule)
system.mem_ctrls.dram.rank0.actPowerDownEnergy            0                       # Energy for active power-down per rank (pJ) (Joule)
system.mem_ctrls.dram.rank0.prePowerDownEnergy            0                       # Energy for precharge power-down per rank (pJ) (Joule)
system.mem_ctrls.dram.rank0.selfRefreshEnergy            0                       # Energy for self refresh per rank (pJ) (Joule)
system.mem_ctrls.dram.rank0.totalEnergy    3349077360                       # Total energy per rank (pJ) (Joule)
system.mem_ctrls.dram.rank0.averagePower   467.717663                       # Core power per rank (mW) (Watt)
system.mem_ctrls.dram.rank0.totalIdleTime            0                       # Total Idle time Per DRAM Rank (Tick)
system.mem_ctrls.dram.rank0.pwrStateTime::IDLE   6795783500                       # Time in different power states (Tick)
system.mem_ctrls.dram.rank0.pwrStateTime::REF    238940000                       # Time in different power states (Tick)
system.mem_ctrls.dram.rank0.pwrStateTime::SREF            0                       # Time in different power states (Tick)
system.mem_ctrls.dram.rank0.pwrStateTime::PRE_PDN            0                       # Time in different power states (Tick)
system.mem_ctrls.dram.rank0.pwrStateTime::ACT    128349250                       # Time in different power states (Tick)
system.mem_ctrls.dram.rank0.pwrStateTime::ACT_PDN            0                       # Time in different power states (Tick)
system.mem_ctrls.dram.rank1.actEnergy         1149540                       # Energy for activate commands per rank (pJ) (Joule)
system.mem_ctrls.dram.rank1.preEnergy          580635                       # Energy for precharge commands per rank (pJ) (Joule)
system.mem_ctrls.dram.rank1.readEnergy        6947220                       # Energy for read commands per rank (pJ) (Joule)
system.mem_ctrls.dram.rank1.writeEnergy        495900                       # Energy for write commands per rank (pJ) (Joule)
system.mem_ctrls.dram.rank1.refreshEnergy 564854160.000000                       # Energy for refresh commands per rank (pJ) (Joule)
system.mem_ctrls.dram.rank1.actBackEnergy    170121060                       # Energy for active background per rank (pJ) (Joule)
system.mem_ctrls.dram.rank1.preBackEnergy   2607360480                       # Energy for precharge background per rank (pJ) (Joule)
system.mem_ctrls.dram.rank1.actPowerDownEnergy            0                       # Energy for active power-down per rank (pJ) (Joule)
system.mem_ctrls.dram.rank1.prePowerDownEnergy            0                       # Energy for precharge power-down per rank (pJ) (Joule)
system.mem_ctrls.dram.rank1.selfRefreshEnergy            0                       # Energy for self refresh per rank (pJ) (Joule)
system.mem_ctrls.dram.rank1.totalEnergy    3351508995                       # Total energy per rank (pJ) (Joule)
system.mem_ctrls.dram.rank1.averagePower   468.057255                       # Core power per rank (mW) (Watt)
system.mem_ctrls.dram.rank1.totalIdleTime            0                       # Total Idle time Per DRAM Rank (Tick)
system.mem_ctrls.dram.rank1.pwrStateTime::IDLE   6777072500                       # Time in different power states (Tick)
system.mem_ctrls.dram.rank1.pwrStateTime::REF    238940000                       # Time in different power states (Tick)
system.mem_ctrls.dram.rank1.pwrStateTime::SREF            0                       # Time in different power states (Tick)
system.mem_ctrls.dram.rank1.pwrStateTime::PRE_PDN            0                       # Time in different power states (Tick)
system.mem_ctrls.dram.rank1.pwrStateTime::ACT    147060250                       # Time in different power states (Tick)
system.mem_ctrls.dram.rank1.pwrStateTime::ACT_PDN            0                       # Time in different power states (Tick)
system.mem_ctrls.power_state.pwrStateResidencyTicks::UNDEFINED   7334644000                       # Cumulative time (in ticks) in various power states (Tick)
system.membus.transDist::ReadResp                1686                       # Transaction distribution (Count)
system.membus.transDist::WritebackDirty           124                       # Transaction distribution (Count)
system.membus.transDist::CleanEvict              1708                       # Transaction distribution (Count)
system.membus.transDist::ReadExReq                146                       # Transaction distribution (Count)
system.membus.transDist::ReadExResp               146                       # Transaction distribution (Count)
system.membus.transDist::ReadSharedReq           1687                       # Transaction distribution (Count)
system.membus.pktCount_system.l2cache.mem_side_port::system.mem_ctrls.port         5497                       # Packet count per connected requestor and responder (Count)
system.membus.pktCount_system.l2cache.mem_side_port::total         5497                       # Packet count per connected requestor and responder (Count)
system.membus.pktCount::total                    5497                       # Packet count per connected requestor and responder (Count)
system.membus.pktSize_system.l2cache.mem_side_port::system.mem_ctrls.port       125184                       # Cumulative packet size per connected requestor and responder (Byte)
system.membus.pktSize_system.l2cache.mem_side_port::total       125184                       # Cumulative packet size per connected requestor and responder (Byte)
system.membus.pktSize::total                   125184                       # Cumulative packet size per connected requestor and responder (Byte)
system.membus.snoops                                0                       # Total snoops (Count)
system.membus.snoopTraffic                          0                       # Total snoop traffic (Byte)
system.membus.snoopFanout::samples               1833                       # Request fanout histogram (Count)
system.membus.snoopFanout::mean                     0                       # Request fanout histogram (Count)
system.membus.snoopFanout::stdev                    0                       # Request fanout histogram (Count)
system.membus.snoopFanout::underflows               0      0.00%      0.00% # Request fanout histogram (Count)
system.membus.snoopFanout::0                     1833    100.00%    100.00% # Request fanout histogram (Count)
system.membus.snoopFanout::1                        0      0.00%    100.00% # Request fanout histogram (Count)
system.membus.snoopFanout::overflows                0      0.00%    100.00% # Request fanout histogram (Count)
system.membus.snoopFanout::min_value                0                       # Request fanout histogram (Count)
system.membus.snoopFanout::max_value                0                       # Request fanout histogram (Count)
system.membus.snoopFanout::total                 1833                       # Request fanout histogram (Count)
system.membus.power_state.pwrStateResidencyTicks::UNDEFINED   7334644000                       # Cumulative time (in ticks) in various power states (Tick)
system.membus.reqLayer2.occupancy             2080500                       # Layer occupancy (ticks) (Tick)
system.membus.reqLayer2.utilization               0.0                       # Layer utilization (Ratio)
system.membus.respLayer1.occupancy            4979250                       # Layer occupancy (ticks) (Tick)
system.membus.respLayer1.utilization              0.0                       # Layer utilization (Ratio)
system.membus.snoop_filter.totRequests           3665                       # Total number of requests made to the snoop filter. (Count)
system.membus.snoop_filter.hitSingleRequests         1832                       # Number of requests hitting in the snoop filter with a single holder of the requested data. (Count)
system.membus.snoop_filter.hitMultiRequests            0                       # Number of requests hitting in the snoop filter with multiple (>1) holders of the requested data. (Count)
system.membus.snoop_filter.totSnoops                0                       # Total number of snoops made to the snoop filter. (Count)
system.membus.snoop_filter.hitSingleSnoops            0                       # Number of snoops hitting in the snoop filter with a single holder of the requested data. (Count)
system.membus.snoop_filter.hitMultiSnoops            0                       # Number of snoops hitting in the snoop filter with multiple (>1) holders of the requested data. (Count)
system.workload.inst.arm                            0                       # number of arm instructions executed (Count)
system.workload.inst.quiesce                        0                       # number of quiesce instructions executed (Count)

---------- End Simulation Statistics   ----------
