
---------- Begin Simulation Statistics ----------
simSeconds                                   0.008686                       # Number of seconds simulated (Second)
simTicks                                   8685894000                       # Number of ticks simulated (Tick)
finalTick                                  8875028500                       # Number of ticks from beginning of simulation (restored from checkpoints and never reset) (Tick)
simFreq                                  1000000000000                       # The number of ticks per simulated second ((Tick/Second))
hostSeconds                                     86.23                       # Real time elapsed on the host (Second)
hostTickRate                                100733984                       # The number of ticks simulated per host second (ticks/s) ((Tick/Second))
hostMemory                                     920980                       # Number of bytes of host memory used (Byte)
simInsts                                     26966475                       # Number of instructions simulated (Count)
simOps                                       41119203                       # Number of ops (including micro ops) simulated (Count)
hostInstRate                                   312741                       # Simulator instruction rate (inst/s) ((Count/Second))
hostOpRate                                     476876                       # Simulator op (including micro ops) rate (op/s) ((Count/Second))
system.clk_domain.clock                           500                       # Clock period in ticks (Tick)
system.clk_domain.voltage_domain.voltage            1                       # Voltage in Volts (Volt)
system.cpu.numCycles                         17371788                       # Number of cpu cycles simulated (Cycle)
system.cpu.numWorkItemsStarted                      0                       # Number of work items this cpu started (Count)
system.cpu.numWorkItemsCompleted                    0                       # Number of work items this cpu completed (Count)
system.cpu.instsAdded                        43920721                       # Number of instructions added to the IQ (excludes non-spec) (Count)
system.cpu.nonSpecInstsAdded                       26                       # Number of non-speculative instructions added to the IQ (Count)
system.cpu.instsIssued                       43188254                       # Number of instructions issued (Count)
system.cpu.squashedInstsIssued                   6330                       # Number of squashed instructions issued (Count)
system.cpu.squashedInstsExamined              2974282                       # Number of squashed instructions iterated over during squash; mainly for profiling (Count)
system.cpu.squashedOperandsExamined           4913179                       # Number of squashed operands that are examined and possibly removed from graph (Count)
system.cpu.squashedNonSpecRemoved                  16                       # Number of squashed non-spec instructions that were removed (Count)
system.cpu.numIssuedDist::samples            17344100                       # Number of insts issued each cycle (Count)
system.cpu.numIssuedDist::mean               2.490083                       # Number of insts issued each cycle (Count)
system.cpu.numIssuedDist::stdev              1.349502                       # Number of insts issued each cycle (Count)
system.cpu.numIssuedDist::underflows                0      0.00%      0.00% # Number of insts issued each cycle (Count)
system.cpu.numIssuedDist::0                   1666779      9.61%      9.61% # Number of insts issued each cycle (Count)
system.cpu.numIssuedDist::1                   3181303     18.34%     27.95% # Number of insts issued each cycle (Count)
system.cpu.numIssuedDist::2                   2925446     16.87%     44.82% # Number of insts issued each cycle (Count)
system.cpu.numIssuedDist::3                   4126229     23.79%     68.61% # Number of insts issued each cycle (Count)
system.cpu.numIssuedDist::4                   5444343     31.39%    100.00% # Number of insts issued each cycle (Count)
system.cpu.numIssuedDist::overflows                 0      0.00%    100.00% # Number of insts issued each cycle (Count)
system.cpu.numIssuedDist::min_value                 0                       # Number of insts issued each cycle (Count)
system.cpu.numIssuedDist::max_value                 4                       # Number of insts issued each cycle (Count)
system.cpu.numIssuedDist::total              17344100                       # Number of insts issued each cycle (Count)
system.cpu.statFuBusy::No_OpClass                   0      0.00%      0.00% # attempts to use FU when none available (Count)
system.cpu.statFuBusy::IntAlu                       0      0.00%      0.00% # attempts to use FU when none available (Count)
system.cpu.statFuBusy::IntMult                      0      0.00%      0.00% # attempts to use FU when none available (Count)
system.cpu.statFuBusy::IntDiv                       0      0.00%      0.00% # attempts to use FU when none available (Count)
system.cpu.statFuBusy::FloatAdd                     0      0.00%      0.00% # attempts to use FU when none available (Count)
system.cpu.statFuBusy::FloatCmp                     0      0.00%      0.00% # attempts to use FU when none available (Count)
system.cpu.statFuBusy::FloatCvt                     0      0.00%      0.00% # attempts to use FU when none available (Count)
system.cpu.statFuBusy::FloatMult                    0      0.00%      0.00% # attempts to use FU when none available (Count)
system.cpu.statFuBusy::FloatMultAcc                 0      0.00%      0.00% # attempts to use FU when none available (Count)
system.cpu.statFuBusy::FloatDiv                     0      0.00%      0.00% # attempts to use FU when none available (Count)
system.cpu.statFuBusy::FloatMisc                    0      0.00%      0.00% # attempts to use FU when none available (Count)
system.cpu.statFuBusy::FloatSqrt                    0      0.00%      0.00% # attempts to use FU when none available (Count)
system.cpu.statFuBusy::SimdAdd                      0      0.00%      0.00% # attempts to use FU when none available (Count)
system.cpu.statFuBusy::SimdAddAcc                   0      0.00%      0.00% # attempts to use FU when none available (Count)
system.cpu.statFuBusy::SimdAlu                      0      0.00%      0.00% # attempts to use FU when none available (Count)
system.cpu.statFuBusy::SimdCmp                      0      0.00%      0.00% # attempts to use FU when none available (Count)
system.cpu.statFuBusy::SimdCvt                      0      0.00%      0.00% # attempts to use FU when none available (Count)
system.cpu.statFuBusy::SimdMisc                     1    100.00%    100.00% # attempts to use FU when none available (Count)
system.cpu.statFuBusy::SimdMult                     0      0.00%    100.00% # attempts to use FU when none available (Count)
system.cpu.statFuBusy::SimdMultAcc                  0      0.00%    100.00% # attempts to use FU when none available (Count)
system.cpu.statFuBusy::SimdShift                    0      0.00%    100.00% # attempts to use FU when none available (Count)
system.cpu.statFuBusy::SimdShiftAcc                 0      0.00%    100.00% # attempts to use FU when none available (Count)
system.cpu.statFuBusy::SimdDiv                      0      0.00%    100.00% # attempts to use FU when none available (Count)
system.cpu.statFuBusy::SimdSqrt                     0      0.00%    100.00% # attempts to use FU when none available (Count)
system.cpu.statFuBusy::SimdFloatAdd                 0      0.00%    100.00% # attempts to use FU when none available (Count)
system.cpu.statFuBusy::SimdFloatAlu                 0      0.00%    100.00% # attempts to use FU when none available (Count)
system.cpu.statFuBusy::SimdFloatCmp                 0      0.00%    100.00% # attempts to use FU when none available (Count)
system.cpu.statFuBusy::SimdFloatCvt                 0      0.00%    100.00% # attempts to use FU when none available (Count)
system.cpu.statFuBusy::SimdFloatDiv                 0      0.00%    100.00% # attempts to use FU when none available (Count)
system.cpu.statFuBusy::SimdFloatMisc                0      0.00%    100.00% # attempts to use FU when none available (Count)
system.cpu.statFuBusy::SimdFloatMult                0      0.00%    100.00% # attempts to use FU when none available (Count)
system.cpu.statFuBusy::SimdFloatMultAcc             0      0.00%    100.00% # attempts to use FU when none available (Count)
system.cpu.statFuBusy::SimdFloatSqrt                0      0.00%    100.00% # attempts to use FU when none available (Count)
system.cpu.statFuBusy::SimdReduceAdd                0      0.00%    100.00% # attempts to use FU when none available (Count)
system.cpu.statFuBusy::SimdReduceAlu                0      0.00%    100.00% # attempts to use FU when none available (Count)
system.cpu.statFuBusy::SimdReduceCmp                0      0.00%    100.00% # attempts to use FU when none available (Count)
system.cpu.statFuBusy::SimdFloatReduceAdd            0      0.00%    100.00% # attempts to use FU when none available (Count)
system.cpu.statFuBusy::SimdFloatReduceCmp            0      0.00%    100.00% # attempts to use FU when none available (Count)
system.cpu.statFuBusy::SimdAes                      0      0.00%    100.00% # attempts to use FU when none available (Count)
system.cpu.statFuBusy::SimdAesMix                   0      0.00%    100.00% # attempts to use FU when none available (Count)
system.cpu.statFuBusy::SimdSha1Hash                 0      0.00%    100.00% # attempts to use FU when none available (Count)
system.cpu.statFuBusy::SimdSha1Hash2                0      0.00%    100.00% # attempts to use FU when none available (Count)
system.cpu.statFuBusy::SimdSha256Hash               0      0.00%    100.00% # attempts to use FU when none available (Count)
system.cpu.statFuBusy::SimdSha256Hash2              0      0.00%    100.00% # attempts to use FU when none available (Count)
system.cpu.statFuBusy::SimdShaSigma2                0      0.00%    100.00% # attempts to use FU when none available (Count)
system.cpu.statFuBusy::SimdShaSigma3                0      0.00%    100.00% # attempts to use FU when none available (Count)
system.cpu.statFuBusy::SimdPredAlu                  0      0.00%    100.00% # attempts to use FU when none available (Count)
system.cpu.statFuBusy::MemRead                      0      0.00%    100.00% # attempts to use FU when none available (Count)
system.cpu.statFuBusy::MemWrite                     0      0.00%    100.00% # attempts to use FU when none available (Count)
system.cpu.statFuBusy::FloatMemRead                 0      0.00%    100.00% # attempts to use FU when none available (Count)
system.cpu.statFuBusy::FloatMemWrite                0      0.00%    100.00% # attempts to use FU when none available (Count)
system.cpu.statFuBusy::IprAccess                    0      0.00%    100.00% # attempts to use FU when none available (Count)
system.cpu.statFuBusy::InstPrefetch                 0      0.00%    100.00% # attempts to use FU when none available (Count)
system.cpu.statIssuedInstType_0::No_OpClass          771      0.00%      0.00% # Number of instructions issued per FU type, per thread (Count)
system.cpu.statIssuedInstType_0::IntAlu      25579078     59.23%     59.23% # Number of instructions issued per FU type, per thread (Count)
system.cpu.statIssuedInstType_0::IntMult        15123      0.04%     59.26% # Number of instructions issued per FU type, per thread (Count)
system.cpu.statIssuedInstType_0::IntDiv            95      0.00%     59.26% # Number of instructions issued per FU type, per thread (Count)
system.cpu.statIssuedInstType_0::FloatAdd           28      0.00%     59.26% # Number of instructions issued per FU type, per thread (Count)
system.cpu.statIssuedInstType_0::FloatCmp            0      0.00%     59.26% # Number of instructions issued per FU type, per thread (Count)
system.cpu.statIssuedInstType_0::FloatCvt           16      0.00%     59.26% # Number of instructions issued per FU type, per thread (Count)
system.cpu.statIssuedInstType_0::FloatMult            0      0.00%     59.26% # Number of instructions issued per FU type, per thread (Count)
system.cpu.statIssuedInstType_0::FloatMultAcc            0      0.00%     59.26% # Number of instructions issued per FU type, per thread (Count)
system.cpu.statIssuedInstType_0::FloatDiv            0      0.00%     59.26% # Number of instructions issued per FU type, per thread (Count)
system.cpu.statIssuedInstType_0::FloatMisc            0      0.00%     59.26% # Number of instructions issued per FU type, per thread (Count)
system.cpu.statIssuedInstType_0::FloatSqrt            0      0.00%     59.26% # Number of instructions issued per FU type, per thread (Count)
system.cpu.statIssuedInstType_0::SimdAdd            4      0.00%     59.26% # Number of instructions issued per FU type, per thread (Count)
system.cpu.statIssuedInstType_0::SimdAddAcc            0      0.00%     59.26% # Number of instructions issued per FU type, per thread (Count)
system.cpu.statIssuedInstType_0::SimdAlu           84      0.00%     59.26% # Number of instructions issued per FU type, per thread (Count)
system.cpu.statIssuedInstType_0::SimdCmp            0      0.00%     59.26% # Number of instructions issued per FU type, per thread (Count)
system.cpu.statIssuedInstType_0::SimdCvt           88      0.00%     59.26% # Number of instructions issued per FU type, per thread (Count)
system.cpu.statIssuedInstType_0::SimdMisc          184      0.00%     59.26% # Number of instructions issued per FU type, per thread (Count)
system.cpu.statIssuedInstType_0::SimdMult            0      0.00%     59.26% # Number of instructions issued per FU type, per thread (Count)
system.cpu.statIssuedInstType_0::SimdMultAcc            0      0.00%     59.26% # Number of instructions issued per FU type, per thread (Count)
system.cpu.statIssuedInstType_0::SimdShift            0      0.00%     59.26% # Number of instructions issued per FU type, per thread (Count)
system.cpu.statIssuedInstType_0::SimdShiftAcc            0      0.00%     59.26% # Number of instructions issued per FU type, per thread (Count)
system.cpu.statIssuedInstType_0::SimdDiv            0      0.00%     59.26% # Number of instructions issued per FU type, per thread (Count)
system.cpu.statIssuedInstType_0::SimdSqrt            0      0.00%     59.26% # Number of instructions issued per FU type, per thread (Count)
system.cpu.statIssuedInstType_0::SimdFloatAdd            0      0.00%     59.26% # Number of instructions issued per FU type, per thread (Count)
system.cpu.statIssuedInstType_0::SimdFloatAlu            0      0.00%     59.26% # Number of instructions issued per FU type, per thread (Count)
system.cpu.statIssuedInstType_0::SimdFloatCmp            0      0.00%     59.26% # Number of instructions issued per FU type, per thread (Count)
system.cpu.statIssuedInstType_0::SimdFloatCvt            0      0.00%     59.26% # Number of instructions issued per FU type, per thread (Count)
system.cpu.statIssuedInstType_0::SimdFloatDiv            0      0.00%     59.26% # Number of instructions issued per FU type, per thread (Count)
system.cpu.statIssuedInstType_0::SimdFloatMisc            0      0.00%     59.26% # Number of instructions issued per FU type, per thread (Count)
system.cpu.statIssuedInstType_0::SimdFloatMult            0      0.00%     59.26% # Number of instructions issued per FU type, per thread (Count)
system.cpu.statIssuedInstType_0::SimdFloatMultAcc            0      0.00%     59.26% # Number of instructions issued per FU type, per thread (Count)
system.cpu.statIssuedInstType_0::SimdFloatSqrt            0      0.00%     59.26% # Number of instructions issued per FU type, per thread (Count)
system.cpu.statIssuedInstType_0::SimdReduceAdd            0      0.00%     59.26% # Number of instructions issued per FU type, per thread (Count)
system.cpu.statIssuedInstType_0::SimdReduceAlu            0      0.00%     59.26% # Number of instructions issued per FU type, per thread (Count)
system.cpu.statIssuedInstType_0::SimdReduceCmp            0      0.00%     59.26% # Number of instructions issued per FU type, per thread (Count)
system.cpu.statIssuedInstType_0::SimdFloatReduceAdd            0      0.00%     59.26% # Number of instructions issued per FU type, per thread (Count)
system.cpu.statIssuedInstType_0::SimdFloatReduceCmp            0      0.00%     59.26% # Number of instructions issued per FU type, per thread (Count)
system.cpu.statIssuedInstType_0::SimdAes            0      0.00%     59.26% # Number of instructions issued per FU type, per thread (Count)
system.cpu.statIssuedInstType_0::SimdAesMix            0      0.00%     59.26% # Number of instructions issued per FU type, per thread (Count)
system.cpu.statIssuedInstType_0::SimdSha1Hash            0      0.00%     59.26% # Number of instructions issued per FU type, per thread (Count)
system.cpu.statIssuedInstType_0::SimdSha1Hash2            0      0.00%     59.26% # Number of instructions issued per FU type, per thread (Count)
system.cpu.statIssuedInstType_0::SimdSha256Hash            0      0.00%     59.26% # Number of instructions issued per FU type, per thread (Count)
system.cpu.statIssuedInstType_0::SimdSha256Hash2            0      0.00%     59.26% # Number of instructions issued per FU type, per thread (Count)
system.cpu.statIssuedInstType_0::SimdShaSigma2            0      0.00%     59.26% # Number of instructions issued per FU type, per thread (Count)
system.cpu.statIssuedInstType_0::SimdShaSigma3            0      0.00%     59.26% # Number of instructions issued per FU type, per thread (Count)
system.cpu.statIssuedInstType_0::SimdPredAlu            0      0.00%     59.26% # Number of instructions issued per FU type, per thread (Count)
system.cpu.statIssuedInstType_0::MemRead     14202219     32.88%     92.15% # Number of instructions issued per FU type, per thread (Count)
system.cpu.statIssuedInstType_0::MemWrite      3390374      7.85%    100.00% # Number of instructions issued per FU type, per thread (Count)
system.cpu.statIssuedInstType_0::FloatMemRead          114      0.00%    100.00% # Number of instructions issued per FU type, per thread (Count)
system.cpu.statIssuedInstType_0::FloatMemWrite           76      0.00%    100.00% # Number of instructions issued per FU type, per thread (Count)
system.cpu.statIssuedInstType_0::IprAccess            0      0.00%    100.00% # Number of instructions issued per FU type, per thread (Count)
system.cpu.statIssuedInstType_0::InstPrefetch            0      0.00%    100.00% # Number of instructions issued per FU type, per thread (Count)
system.cpu.statIssuedInstType_0::total       43188254                       # Number of instructions issued per FU type, per thread (Count)
system.cpu.issueRate                         2.486114                       # Inst issue rate ((Count/Cycle))
system.cpu.fuBusy                                   1                       # FU busy when requested (Count)
system.cpu.fuBusyRate                        0.000000                       # FU busy rate (busy events/executed inst) ((Count/Count))
system.cpu.intInstQueueReads                103725628                       # Number of integer instruction queue reads (Count)
system.cpu.intInstQueueWrites                46894491                       # Number of integer instruction queue writes (Count)
system.cpu.intInstQueueWakeupAccesses        42598356                       # Number of integer instruction queue wakeup accesses (Count)
system.cpu.fpInstQueueReads                      1311                       # Number of floating instruction queue reads (Count)
system.cpu.fpInstQueueWrites                      688                       # Number of floating instruction queue writes (Count)
system.cpu.fpInstQueueWakeupAccesses              634                       # Number of floating instruction queue wakeup accesses (Count)
system.cpu.vecInstQueueReads                        0                       # Number of vector instruction queue reads (Count)
system.cpu.vecInstQueueWrites                       0                       # Number of vector instruction queue writes (Count)
system.cpu.vecInstQueueWakeupAccesses               0                       # Number of vector instruction queue wakeup accesses (Count)
system.cpu.intAluAccesses                    43186829                       # Number of integer alu accesses (Count)
system.cpu.fpAluAccesses                          655                       # Number of floating point alu accesses (Count)
system.cpu.vecAluAccesses                           0                       # Number of vector alu accesses (Count)
system.cpu.numInsts                          42766756                       # Number of executed instructions (Count)
system.cpu.numLoadInsts                      14018001                       # Number of load instructions executed (Count)
system.cpu.numSquashedInsts                    421498                       # Number of squashed instructions skipped in execute (Count)
system.cpu.numSwp                                   0                       # Number of swp insts executed (Count)
system.cpu.numNop                                   0                       # Number of nop insts executed (Count)
system.cpu.numRefs                           17354574                       # Number of memory reference insts executed (Count)
system.cpu.numBranches                        2563632                       # Number of branches executed (Count)
system.cpu.numStoreInsts                      3336573                       # Number of stores executed (Count)
system.cpu.numRate                           2.461851                       # Inst execution rate ((Count/Cycle))
system.cpu.timesIdled                             688                       # Number of times that the entire CPU went into an idle state and unscheduled itself (Count)
system.cpu.idleCycles                           27688                       # Total number of cycles that the CPU has spent unscheduled due to idling (Cycle)
system.cpu.committedInsts                    26871651                       # Number of Instructions Simulated (Count)
system.cpu.committedOps                      40946462                       # Number of Ops (including micro ops) Simulated (Count)
system.cpu.cpi                               0.646473                       # CPI: Cycles Per Instruction ((Cycle/Count))
system.cpu.totalCpi                          0.646473                       # CPI: Total CPI of All Threads ((Cycle/Count))
system.cpu.ipc                               1.546856                       # IPC: Instructions Per Cycle ((Count/Cycle))
system.cpu.totalIpc                          1.546856                       # IPC: Total IPC of All Threads ((Count/Cycle))
system.cpu.intRegfileReads                   44649215                       # Number of integer regfile reads (Count)
system.cpu.intRegfileWrites                  34245701                       # Number of integer regfile writes (Count)
system.cpu.fpRegfileReads                         992                       # Number of floating regfile reads (Count)
system.cpu.fpRegfileWrites                        506                       # Number of floating regfile writes (Count)
system.cpu.ccRegfileReads                    12742607                       # number of cc regfile reads (Count)
system.cpu.ccRegfileWrites                   13182022                       # number of cc regfile writes (Count)
system.cpu.miscRegfileReads                  23969792                       # number of misc regfile reads (Count)
system.cpu.miscRegfileWrites                        9                       # number of misc regfile writes (Count)
system.cpu.MemDepUnit__0.insertedLoads       14331553                       # Number of loads inserted to the mem dependence unit. (Count)
system.cpu.MemDepUnit__0.insertedStores       3521901                       # Number of stores inserted to the mem dependence unit. (Count)
system.cpu.MemDepUnit__0.conflictingLoads      3272568                       # Number of conflicting loads. (Count)
system.cpu.MemDepUnit__0.conflictingStores            8                       # Number of conflicting stores. (Count)
system.cpu.MemDepUnit__1.insertedLoads              0                       # Number of loads inserted to the mem dependence unit. (Count)
system.cpu.MemDepUnit__1.insertedStores             0                       # Number of stores inserted to the mem dependence unit. (Count)
system.cpu.MemDepUnit__1.conflictingLoads            0                       # Number of conflicting loads. (Count)
system.cpu.MemDepUnit__1.conflictingStores            0                       # Number of conflicting stores. (Count)
system.cpu.MemDepUnit__2.insertedLoads              0                       # Number of loads inserted to the mem dependence unit. (Count)
system.cpu.MemDepUnit__2.insertedStores             0                       # Number of stores inserted to the mem dependence unit. (Count)
system.cpu.MemDepUnit__2.conflictingLoads            0                       # Number of conflicting loads. (Count)
system.cpu.MemDepUnit__2.conflictingStores            0                       # Number of conflicting stores. (Count)
system.cpu.MemDepUnit__3.insertedLoads              0                       # Number of loads inserted to the mem dependence unit. (Count)
system.cpu.MemDepUnit__3.insertedStores             0                       # Number of stores inserted to the mem dependence unit. (Count)
system.cpu.MemDepUnit__3.conflictingLoads            0                       # Number of conflicting loads. (Count)
system.cpu.MemDepUnit__3.conflictingStores            0                       # Number of conflicting stores. (Count)
system.cpu.branchPred.lookups                 2758018                       # Number of BP lookups (Count)
system.cpu.branchPred.condPredicted           2734293                       # Number of conditional branches predicted (Count)
system.cpu.branchPred.condIncorrect            125054                       # Number of conditional branches incorrect (Count)
system.cpu.branchPred.BTBLookups              2066582                       # Number of BTB lookups (Count)
system.cpu.branchPred.BTBHits                 2066143                       # Number of BTB hits (Count)
system.cpu.branchPred.BTBHitRatio            0.999788                       # BTB Hit Ratio (Ratio)
system.cpu.branchPred.RASUsed                    5461                       # Number of times the RAS was used to get a target. (Count)
system.cpu.branchPred.RASIncorrect                  3                       # Number of incorrect RAS predictions. (Count)
system.cpu.branchPred.indirectLookups             328                       # Number of indirect predictor lookups. (Count)
system.cpu.branchPred.indirectHits                 96                       # Number of indirect target hits. (Count)
system.cpu.branchPred.indirectMisses              232                       # Number of indirect misses. (Count)
system.cpu.branchPred.indirectMispredicted           55                       # Number of mispredicted indirect branches. (Count)
system.cpu.commit.commitSquashedInsts         2973810                       # The number of squashed insts skipped by commit (Count)
system.cpu.commit.commitNonSpecStalls              10                       # The number of times commit has been forced to stall to communicate backwards (Count)
system.cpu.commit.branchMispredicts            125141                       # The number of times a branch was mispredicted (Count)
system.cpu.commit.numCommittedDist::samples     16905652                       # Number of insts commited each cycle (Count)
system.cpu.commit.numCommittedDist::mean     2.422058                       # Number of insts commited each cycle (Count)
system.cpu.commit.numCommittedDist::stdev     1.524584                       # Number of insts commited each cycle (Count)
system.cpu.commit.numCommittedDist::underflows            0      0.00%      0.00% # Number of insts commited each cycle (Count)
system.cpu.commit.numCommittedDist::0         2860792     16.92%     16.92% # Number of insts commited each cycle (Count)
system.cpu.commit.numCommittedDist::1         3077581     18.20%     35.13% # Number of insts commited each cycle (Count)
system.cpu.commit.numCommittedDist::2          958535      5.67%     40.80% # Number of insts commited each cycle (Count)
system.cpu.commit.numCommittedDist::3         4083165     24.15%     64.95% # Number of insts commited each cycle (Count)
system.cpu.commit.numCommittedDist::4         5925579     35.05%    100.00% # Number of insts commited each cycle (Count)
system.cpu.commit.numCommittedDist::overflows            0      0.00%    100.00% # Number of insts commited each cycle (Count)
system.cpu.commit.numCommittedDist::min_value            0                       # Number of insts commited each cycle (Count)
system.cpu.commit.numCommittedDist::max_value            4                       # Number of insts commited each cycle (Count)
system.cpu.commit.numCommittedDist::total     16905652                       # Number of insts commited each cycle (Count)
system.cpu.commit.instsCommitted             26871651                       # Number of instructions committed (Count)
system.cpu.commit.opsCommitted               40946462                       # Number of ops (including micro ops) committed (Count)
system.cpu.commit.memRefs                    16555533                       # Number of memory references committed (Count)
system.cpu.commit.loads                      13339506                       # Number of loads committed (Count)
system.cpu.commit.amos                              0                       # Number of atomic instructions committed (Count)
system.cpu.commit.membars                           0                       # Number of memory barriers committed (Count)
system.cpu.commit.branches                    2557251                       # Number of branches committed (Count)
system.cpu.commit.vectorInstructions                0                       # Number of committed Vector instructions. (Count)
system.cpu.commit.floating                        616                       # Number of committed floating point instructions. (Count)
system.cpu.commit.integer                    40945640                       # Number of committed integer instructions. (Count)
system.cpu.commit.functionCalls                  5222                       # Number of function calls committed. (Count)
system.cpu.commit.committedInstType_0::No_OpClass          296      0.00%      0.00% # Class of committed instruction (Count)
system.cpu.commit.committedInstType_0::IntAlu     24375094     59.53%     59.53% # Class of committed instruction (Count)
system.cpu.commit.committedInstType_0::IntMult        15050      0.04%     59.57% # Class of committed instruction (Count)
system.cpu.commit.committedInstType_0::IntDiv           85      0.00%     59.57% # Class of committed instruction (Count)
system.cpu.commit.committedInstType_0::FloatAdd           28      0.00%     59.57% # Class of committed instruction (Count)
system.cpu.commit.committedInstType_0::FloatCmp            0      0.00%     59.57% # Class of committed instruction (Count)
system.cpu.commit.committedInstType_0::FloatCvt           16      0.00%     59.57% # Class of committed instruction (Count)
system.cpu.commit.committedInstType_0::FloatMult            0      0.00%     59.57% # Class of committed instruction (Count)
system.cpu.commit.committedInstType_0::FloatMultAcc            0      0.00%     59.57% # Class of committed instruction (Count)
system.cpu.commit.committedInstType_0::FloatDiv            0      0.00%     59.57% # Class of committed instruction (Count)
system.cpu.commit.committedInstType_0::FloatMisc            0      0.00%     59.57% # Class of committed instruction (Count)
system.cpu.commit.committedInstType_0::FloatSqrt            0      0.00%     59.57% # Class of committed instruction (Count)
system.cpu.commit.committedInstType_0::SimdAdd            4      0.00%     59.57% # Class of committed instruction (Count)
system.cpu.commit.committedInstType_0::SimdAddAcc            0      0.00%     59.57% # Class of committed instruction (Count)
system.cpu.commit.committedInstType_0::SimdAlu           84      0.00%     59.57% # Class of committed instruction (Count)
system.cpu.commit.committedInstType_0::SimdCmp            0      0.00%     59.57% # Class of committed instruction (Count)
system.cpu.commit.committedInstType_0::SimdCvt           88      0.00%     59.57% # Class of committed instruction (Count)
system.cpu.commit.committedInstType_0::SimdMisc          184      0.00%     59.57% # Class of committed instruction (Count)
system.cpu.commit.committedInstType_0::SimdMult            0      0.00%     59.57% # Class of committed instruction (Count)
system.cpu.commit.committedInstType_0::SimdMultAcc            0      0.00%     59.57% # Class of committed instruction (Count)
system.cpu.commit.committedInstType_0::SimdShift            0      0.00%     59.57% # Class of committed instruction (Count)
system.cpu.commit.committedInstType_0::SimdShiftAcc            0      0.00%     59.57% # Class of committed instruction (Count)
system.cpu.commit.committedInstType_0::SimdDiv            0      0.00%     59.57% # Class of committed instruction (Count)
system.cpu.commit.committedInstType_0::SimdSqrt            0      0.00%     59.57% # Class of committed instruction (Count)
system.cpu.commit.committedInstType_0::SimdFloatAdd            0      0.00%     59.57% # Class of committed instruction (Count)
system.cpu.commit.committedInstType_0::SimdFloatAlu            0      0.00%     59.57% # Class of committed instruction (Count)
system.cpu.commit.committedInstType_0::SimdFloatCmp            0      0.00%     59.57% # Class of committed instruction (Count)
system.cpu.commit.committedInstType_0::SimdFloatCvt            0      0.00%     59.57% # Class of committed instruction (Count)
system.cpu.commit.committedInstType_0::SimdFloatDiv            0      0.00%     59.57% # Class of committed instruction (Count)
system.cpu.commit.committedInstType_0::SimdFloatMisc            0      0.00%     59.57% # Class of committed instruction (Count)
system.cpu.commit.committedInstType_0::SimdFloatMult            0      0.00%     59.57% # Class of committed instruction (Count)
system.cpu.commit.committedInstType_0::SimdFloatMultAcc            0      0.00%     59.57% # Class of committed instruction (Count)
system.cpu.commit.committedInstType_0::SimdFloatSqrt            0      0.00%     59.57% # Class of committed instruction (Count)
system.cpu.commit.committedInstType_0::SimdReduceAdd            0      0.00%     59.57% # Class of committed instruction (Count)
system.cpu.commit.committedInstType_0::SimdReduceAlu            0      0.00%     59.57% # Class of committed instruction (Count)
system.cpu.commit.committedInstType_0::SimdReduceCmp            0      0.00%     59.57% # Class of committed instruction (Count)
system.cpu.commit.committedInstType_0::SimdFloatReduceAdd            0      0.00%     59.57% # Class of committed instruction (Count)
system.cpu.commit.committedInstType_0::SimdFloatReduceCmp            0      0.00%     59.57% # Class of committed instruction (Count)
system.cpu.commit.committedInstType_0::SimdAes            0      0.00%     59.57% # Class of committed instruction (Count)
system.cpu.commit.committedInstType_0::SimdAesMix            0      0.00%     59.57% # Class of committed instruction (Count)
system.cpu.commit.committedInstType_0::SimdSha1Hash            0      0.00%     59.57% # Class of committed instruction (Count)
system.cpu.commit.committedInstType_0::SimdSha1Hash2            0      0.00%     59.57% # Class of committed instruction (Count)
system.cpu.commit.committedInstType_0::SimdSha256Hash            0      0.00%     59.57% # Class of committed instruction (Count)
system.cpu.commit.committedInstType_0::SimdSha256Hash2            0      0.00%     59.57% # Class of committed instruction (Count)
system.cpu.commit.committedInstType_0::SimdShaSigma2            0      0.00%     59.57% # Class of committed instruction (Count)
system.cpu.commit.committedInstType_0::SimdShaSigma3            0      0.00%     59.57% # Class of committed instruction (Count)
system.cpu.commit.committedInstType_0::SimdPredAlu            0      0.00%     59.57% # Class of committed instruction (Count)
system.cpu.commit.committedInstType_0::MemRead     13339406     32.58%     92.15% # Class of committed instruction (Count)
system.cpu.commit.committedInstType_0::MemWrite      3215975      7.85%    100.00% # Class of committed instruction (Count)
system.cpu.commit.committedInstType_0::FloatMemRead          100      0.00%    100.00% # Class of committed instruction (Count)
system.cpu.commit.committedInstType_0::FloatMemWrite           52      0.00%    100.00% # Class of committed instruction (Count)
system.cpu.commit.committedInstType_0::IprAccess            0      0.00%    100.00% # Class of committed instruction (Count)
system.cpu.commit.committedInstType_0::InstPrefetch            0      0.00%    100.00% # Class of committed instruction (Count)
system.cpu.commit.committedInstType_0::total     40946462                       # Class of committed instruction (Count)
system.cpu.commit.commitEligibleSamples       5925579                       # number cycles where commit BW limit reached (Cycle)
system.cpu.dcache.demandHits::cpu.data        9672553                       # number of demand (read+write) hits (Count)
system.cpu.dcache.demandHits::total           9672553                       # number of demand (read+write) hits (Count)
system.cpu.dcache.overallHits::cpu.data       9672553                       # number of overall hits (Count)
system.cpu.dcache.overallHits::total          9672553                       # number of overall hits (Count)
system.cpu.dcache.demandMisses::cpu.data         5333                       # number of demand (read+write) misses (Count)
system.cpu.dcache.demandMisses::total            5333                       # number of demand (read+write) misses (Count)
system.cpu.dcache.overallMisses::cpu.data         5333                       # number of overall misses (Count)
system.cpu.dcache.overallMisses::total           5333                       # number of overall misses (Count)
system.cpu.dcache.demandMissLatency::cpu.data    315835000                       # number of demand (read+write) miss ticks (Tick)
system.cpu.dcache.demandMissLatency::total    315835000                       # number of demand (read+write) miss ticks (Tick)
system.cpu.dcache.overallMissLatency::cpu.data    315835000                       # number of overall miss ticks (Tick)
system.cpu.dcache.overallMissLatency::total    315835000                       # number of overall miss ticks (Tick)
system.cpu.dcache.demandAccesses::cpu.data      9677886                       # number of demand (read+write) accesses (Count)
system.cpu.dcache.demandAccesses::total       9677886                       # number of demand (read+write) accesses (Count)
system.cpu.dcache.overallAccesses::cpu.data      9677886                       # number of overall (read+write) accesses (Count)
system.cpu.dcache.overallAccesses::total      9677886                       # number of overall (read+write) accesses (Count)
system.cpu.dcache.demandMissRate::cpu.data     0.000551                       # miss rate for demand accesses (Ratio)
system.cpu.dcache.demandMissRate::total      0.000551                       # miss rate for demand accesses (Ratio)
system.cpu.dcache.overallMissRate::cpu.data     0.000551                       # miss rate for overall accesses (Ratio)
system.cpu.dcache.overallMissRate::total     0.000551                       # miss rate for overall accesses (Ratio)
system.cpu.dcache.demandAvgMissLatency::cpu.data 59222.763923                       # average overall miss latency in ticks ((Tick/Count))
system.cpu.dcache.demandAvgMissLatency::total 59222.763923                       # average overall miss latency in ticks ((Tick/Count))
system.cpu.dcache.overallAvgMissLatency::cpu.data 59222.763923                       # average overall miss latency ((Tick/Count))
system.cpu.dcache.overallAvgMissLatency::total 59222.763923                       # average overall miss latency ((Tick/Count))
system.cpu.dcache.blockedCycles::no_mshrs          179                       # number of cycles access was blocked (Cycle)
system.cpu.dcache.blockedCycles::no_targets            0                       # number of cycles access was blocked (Cycle)
system.cpu.dcache.blockedCauses::no_mshrs            9                       # number of times access was blocked (Count)
system.cpu.dcache.blockedCauses::no_targets            0                       # number of times access was blocked (Count)
system.cpu.dcache.avgBlocked::no_mshrs      19.888889                       # average number of cycles each access was blocked ((Cycle/Count))
system.cpu.dcache.avgBlocked::no_targets          nan                       # average number of cycles each access was blocked ((Cycle/Count))
system.cpu.dcache.writebacks::writebacks          421                       # number of writebacks (Count)
system.cpu.dcache.writebacks::total               421                       # number of writebacks (Count)
system.cpu.dcache.demandMshrHits::cpu.data         3482                       # number of demand (read+write) MSHR hits (Count)
system.cpu.dcache.demandMshrHits::total          3482                       # number of demand (read+write) MSHR hits (Count)
system.cpu.dcache.overallMshrHits::cpu.data         3482                       # number of overall MSHR hits (Count)
system.cpu.dcache.overallMshrHits::total         3482                       # number of overall MSHR hits (Count)
system.cpu.dcache.demandMshrMisses::cpu.data         1851                       # number of demand (read+write) MSHR misses (Count)
system.cpu.dcache.demandMshrMisses::total         1851                       # number of demand (read+write) MSHR misses (Count)
system.cpu.dcache.overallMshrMisses::cpu.data         1851                       # number of overall MSHR misses (Count)
system.cpu.dcache.overallMshrMisses::total         1851                       # number of overall MSHR misses (Count)
system.cpu.dcache.demandMshrMissLatency::cpu.data    102872000                       # number of demand (read+write) MSHR miss ticks (Tick)
system.cpu.dcache.demandMshrMissLatency::total    102872000                       # number of demand (read+write) MSHR miss ticks (Tick)
system.cpu.dcache.overallMshrMissLatency::cpu.data    102872000                       # number of overall MSHR miss ticks (Tick)
system.cpu.dcache.overallMshrMissLatency::total    102872000                       # number of overall MSHR miss ticks (Tick)
system.cpu.dcache.demandMshrMissRate::cpu.data     0.000191                       # mshr miss ratio for demand accesses (Ratio)
system.cpu.dcache.demandMshrMissRate::total     0.000191                       # mshr miss ratio for demand accesses (Ratio)
system.cpu.dcache.overallMshrMissRate::cpu.data     0.000191                       # mshr miss ratio for overall accesses (Ratio)
system.cpu.dcache.overallMshrMissRate::total     0.000191                       # mshr miss ratio for overall accesses (Ratio)
system.cpu.dcache.demandAvgMshrMissLatency::cpu.data 55576.445165                       # average overall mshr miss latency ((Tick/Count))
system.cpu.dcache.demandAvgMshrMissLatency::total 55576.445165                       # average overall mshr miss latency ((Tick/Count))
system.cpu.dcache.overallAvgMshrMissLatency::cpu.data 55576.445165                       # average overall mshr miss latency ((Tick/Count))
system.cpu.dcache.overallAvgMshrMissLatency::total 55576.445165                       # average overall mshr miss latency ((Tick/Count))
system.cpu.dcache.replacements                   1850                       # number of replacements (Count)
system.cpu.dcache.ReadReq.hits::cpu.data      6456866                       # number of ReadReq hits (Count)
system.cpu.dcache.ReadReq.hits::total         6456866                       # number of ReadReq hits (Count)
system.cpu.dcache.ReadReq.misses::cpu.data         4993                       # number of ReadReq misses (Count)
system.cpu.dcache.ReadReq.misses::total          4993                       # number of ReadReq misses (Count)
system.cpu.dcache.ReadReq.missLatency::cpu.data    303101000                       # number of ReadReq miss ticks (Tick)
system.cpu.dcache.ReadReq.missLatency::total    303101000                       # number of ReadReq miss ticks (Tick)
system.cpu.dcache.ReadReq.accesses::cpu.data      6461859                       # number of ReadReq accesses(hits+misses) (Count)
system.cpu.dcache.ReadReq.accesses::total      6461859                       # number of ReadReq accesses(hits+misses) (Count)
system.cpu.dcache.ReadReq.missRate::cpu.data     0.000773                       # miss rate for ReadReq accesses (Ratio)
system.cpu.dcache.ReadReq.missRate::total     0.000773                       # miss rate for ReadReq accesses (Ratio)
system.cpu.dcache.ReadReq.avgMissLatency::cpu.data 60705.187262                       # average ReadReq miss latency ((Tick/Count))
system.cpu.dcache.ReadReq.avgMissLatency::total 60705.187262                       # average ReadReq miss latency ((Tick/Count))
system.cpu.dcache.ReadReq.mshrHits::cpu.data         3471                       # number of ReadReq MSHR hits (Count)
system.cpu.dcache.ReadReq.mshrHits::total         3471                       # number of ReadReq MSHR hits (Count)
system.cpu.dcache.ReadReq.mshrMisses::cpu.data         1522                       # number of ReadReq MSHR misses (Count)
system.cpu.dcache.ReadReq.mshrMisses::total         1522                       # number of ReadReq MSHR misses (Count)
system.cpu.dcache.ReadReq.mshrMissLatency::cpu.data     90672500                       # number of ReadReq MSHR miss ticks (Tick)
system.cpu.dcache.ReadReq.mshrMissLatency::total     90672500                       # number of ReadReq MSHR miss ticks (Tick)
system.cpu.dcache.ReadReq.mshrMissRate::cpu.data     0.000236                       # mshr miss rate for ReadReq accesses (Ratio)
system.cpu.dcache.ReadReq.mshrMissRate::total     0.000236                       # mshr miss rate for ReadReq accesses (Ratio)
system.cpu.dcache.ReadReq.avgMshrMissLatency::cpu.data 59574.572930                       # average ReadReq mshr miss latency ((Tick/Count))
system.cpu.dcache.ReadReq.avgMshrMissLatency::total 59574.572930                       # average ReadReq mshr miss latency ((Tick/Count))
system.cpu.dcache.WriteReq.hits::cpu.data      3215687                       # number of WriteReq hits (Count)
system.cpu.dcache.WriteReq.hits::total        3215687                       # number of WriteReq hits (Count)
system.cpu.dcache.WriteReq.misses::cpu.data          340                       # number of WriteReq misses (Count)
system.cpu.dcache.WriteReq.misses::total          340                       # number of WriteReq misses (Count)
system.cpu.dcache.WriteReq.missLatency::cpu.data     12734000                       # number of WriteReq miss ticks (Tick)
system.cpu.dcache.WriteReq.missLatency::total     12734000                       # number of WriteReq miss ticks (Tick)
system.cpu.dcache.WriteReq.accesses::cpu.data      3216027                       # number of WriteReq accesses(hits+misses) (Count)
system.cpu.dcache.WriteReq.accesses::total      3216027                       # number of WriteReq accesses(hits+misses) (Count)
system.cpu.dcache.WriteReq.missRate::cpu.data     0.000106                       # miss rate for WriteReq accesses (Ratio)
system.cpu.dcache.WriteReq.missRate::total     0.000106                       # miss rate for WriteReq accesses (Ratio)
system.cpu.dcache.WriteReq.avgMissLatency::cpu.data 37452.941176                       # average WriteReq miss latency ((Tick/Count))
system.cpu.dcache.WriteReq.avgMissLatency::total 37452.941176                       # average WriteReq miss latency ((Tick/Count))
system.cpu.dcache.WriteReq.mshrHits::cpu.data           11                       # number of WriteReq MSHR hits (Count)
system.cpu.dcache.WriteReq.mshrHits::total           11                       # number of WriteReq MSHR hits (Count)
system.cpu.dcache.WriteReq.mshrMisses::cpu.data          329                       # number of WriteReq MSHR misses (Count)
system.cpu.dcache.WriteReq.mshrMisses::total          329                       # number of WriteReq MSHR misses (Count)
system.cpu.dcache.WriteReq.mshrMissLatency::cpu.data     12199500                       # number of WriteReq MSHR miss ticks (Tick)
system.cpu.dcache.WriteReq.mshrMissLatency::total     12199500                       # number of WriteReq MSHR miss ticks (Tick)
system.cpu.dcache.WriteReq.mshrMissRate::cpu.data     0.000102                       # mshr miss rate for WriteReq accesses (Ratio)
system.cpu.dcache.WriteReq.mshrMissRate::total     0.000102                       # mshr miss rate for WriteReq accesses (Ratio)
system.cpu.dcache.WriteReq.avgMshrMissLatency::cpu.data 37080.547112                       # average WriteReq mshr miss latency ((Tick/Count))
system.cpu.dcache.WriteReq.avgMshrMissLatency::total 37080.547112                       # average WriteReq mshr miss latency ((Tick/Count))
system.cpu.dcache.power_state.pwrStateResidencyTicks::UNDEFINED   8875028500                       # Cumulative time (in ticks) in various power states (Tick)
system.cpu.dcache.tags.tagsInUse                   64                       # Average ticks per tags in use ((Tick/Count))
system.cpu.dcache.tags.totalRefs              7717853                       # Total number of references to valid blocks. (Count)
system.cpu.dcache.tags.sampledRefs               1850                       # Sample count of references to valid blocks. (Count)
system.cpu.dcache.tags.avgRefs            4171.812432                       # Average number of references to valid blocks. ((Count/Count))
system.cpu.dcache.tags.warmupTick             8828000                       # The tick when the warmup percentage was hit. (Tick)
system.cpu.dcache.tags.occupancies::cpu.data           64                       # Average occupied blocks per tick, per requestor ((Count/Tick))
system.cpu.dcache.tags.avgOccs::cpu.data            1                       # Average percentage of cache occupancy ((Ratio/Tick))
system.cpu.dcache.tags.avgOccs::total               1                       # Average percentage of cache occupancy ((Ratio/Tick))
system.cpu.dcache.tags.occupanciesTaskId::1024           64                       # Occupied blocks per task id (Count)
system.cpu.dcache.tags.ageTaskId_1024::0           24                       # Occupied blocks per task id, per block age (Count)
system.cpu.dcache.tags.ageTaskId_1024::3           40                       # Occupied blocks per task id, per block age (Count)
system.cpu.dcache.tags.ratioOccsTaskId::1024            1                       # Ratio of occupied blocks and all blocks, per task id (Ratio)
system.cpu.dcache.tags.tagAccesses           19357622                       # Number of tag accesses (Count)
system.cpu.dcache.tags.dataAccesses          19357622                       # Number of data accesses (Count)
system.cpu.dcache.tags.power_state.pwrStateResidencyTicks::UNDEFINED   8875028500                       # Cumulative time (in ticks) in various power states (Tick)
system.cpu.decode.idleCycles                  4236364                       # Number of cycles decode is idle (Cycle)
system.cpu.decode.blockedCycles                539700                       # Number of cycles decode is blocked (Cycle)
system.cpu.decode.runCycles                  12228381                       # Number of cycles decode is running (Cycle)
system.cpu.decode.unblockCycles                214323                       # Number of cycles decode is unblocking (Cycle)
system.cpu.decode.squashCycles                 125332                       # Number of cycles decode is squashing (Cycle)
system.cpu.decode.branchResolved              2064102                       # Number of times decode resolved a branch (Count)
system.cpu.decode.branchMispred                   135                       # Number of times decode detected a branch misprediction (Count)
system.cpu.decode.decodedInsts               44566152                       # Number of instructions handled by decode (Count)
system.cpu.decode.squashedInsts                   341                       # Number of squashed instructions handled by decode (Count)
system.cpu.fetch.icacheStallCycles            4407569                       # Number of cycles fetch is stalled on an Icache miss (Cycle)
system.cpu.fetch.insts                       29574207                       # Number of instructions fetch has processed (Count)
system.cpu.fetch.branches                     2758018                       # Number of branches that fetch encountered (Count)
system.cpu.fetch.predictedBranches            2071700                       # Number of branches that fetch has predicted taken (Count)
system.cpu.fetch.cycles                      12809237                       # Number of cycles fetch has run and was not squashing or blocked (Cycle)
system.cpu.fetch.squashCycles                  250926                       # Number of cycles fetch has spent squashing (Cycle)
system.cpu.fetch.miscStallCycles                  235                       # Number of cycles fetch has spent waiting on interrupts, or bad addresses, or out of MSHRs (Cycle)
system.cpu.fetch.pendingTrapStallCycles          1596                       # Number of stall cycles due to pending traps (Cycle)
system.cpu.fetch.cacheLines                   4276975                       # Number of cache lines fetched (Count)
system.cpu.fetch.icacheSquashes                  4243                       # Number of outstanding Icache misses that were squashed (Count)
system.cpu.fetch.nisnDist::samples           17344100                       # Number of instructions fetched each cycle (Total) (Count)
system.cpu.fetch.nisnDist::mean              2.600330                       # Number of instructions fetched each cycle (Total) (Count)
system.cpu.fetch.nisnDist::stdev             1.732984                       # Number of instructions fetched each cycle (Total) (Count)
system.cpu.fetch.nisnDist::underflows               0      0.00%      0.00% # Number of instructions fetched each cycle (Total) (Count)
system.cpu.fetch.nisnDist::0                  4669781     26.92%     26.92% # Number of instructions fetched each cycle (Total) (Count)
system.cpu.fetch.nisnDist::1                   738879      4.26%     31.18% # Number of instructions fetched each cycle (Total) (Count)
system.cpu.fetch.nisnDist::2                   660076      3.81%     34.99% # Number of instructions fetched each cycle (Total) (Count)
system.cpu.fetch.nisnDist::3                  2060109     11.88%     46.87% # Number of instructions fetched each cycle (Total) (Count)
system.cpu.fetch.nisnDist::4                  9215255     53.13%    100.00% # Number of instructions fetched each cycle (Total) (Count)
system.cpu.fetch.nisnDist::overflows                0      0.00%    100.00% # Number of instructions fetched each cycle (Total) (Count)
system.cpu.fetch.nisnDist::min_value                0                       # Number of instructions fetched each cycle (Total) (Count)
system.cpu.fetch.nisnDist::max_value                4                       # Number of instructions fetched each cycle (Total) (Count)
system.cpu.fetch.nisnDist::total             17344100                       # Number of instructions fetched each cycle (Total) (Count)
system.cpu.fetch.branchRate                  0.158764                       # Number of branch fetches per cycle (Ratio)
system.cpu.fetch.rate                        1.702427                       # Number of inst fetches per cycle ((Count/Cycle))
system.cpu.icache.demandHits::cpu.inst        4275910                       # number of demand (read+write) hits (Count)
system.cpu.icache.demandHits::total           4275910                       # number of demand (read+write) hits (Count)
system.cpu.icache.overallHits::cpu.inst       4275910                       # number of overall hits (Count)
system.cpu.icache.overallHits::total          4275910                       # number of overall hits (Count)
system.cpu.icache.demandMisses::cpu.inst         1065                       # number of demand (read+write) misses (Count)
system.cpu.icache.demandMisses::total            1065                       # number of demand (read+write) misses (Count)
system.cpu.icache.overallMisses::cpu.inst         1065                       # number of overall misses (Count)
system.cpu.icache.overallMisses::total           1065                       # number of overall misses (Count)
system.cpu.icache.demandMissLatency::cpu.inst     37751000                       # number of demand (read+write) miss ticks (Tick)
system.cpu.icache.demandMissLatency::total     37751000                       # number of demand (read+write) miss ticks (Tick)
system.cpu.icache.overallMissLatency::cpu.inst     37751000                       # number of overall miss ticks (Tick)
system.cpu.icache.overallMissLatency::total     37751000                       # number of overall miss ticks (Tick)
system.cpu.icache.demandAccesses::cpu.inst      4276975                       # number of demand (read+write) accesses (Count)
system.cpu.icache.demandAccesses::total       4276975                       # number of demand (read+write) accesses (Count)
system.cpu.icache.overallAccesses::cpu.inst      4276975                       # number of overall (read+write) accesses (Count)
system.cpu.icache.overallAccesses::total      4276975                       # number of overall (read+write) accesses (Count)
system.cpu.icache.demandMissRate::cpu.inst     0.000249                       # miss rate for demand accesses (Ratio)
system.cpu.icache.demandMissRate::total      0.000249                       # miss rate for demand accesses (Ratio)
system.cpu.icache.overallMissRate::cpu.inst     0.000249                       # miss rate for overall accesses (Ratio)
system.cpu.icache.overallMissRate::total     0.000249                       # miss rate for overall accesses (Ratio)
system.cpu.icache.demandAvgMissLatency::cpu.inst 35446.948357                       # average overall miss latency in ticks ((Tick/Count))
system.cpu.icache.demandAvgMissLatency::total 35446.948357                       # average overall miss latency in ticks ((Tick/Count))
system.cpu.icache.overallAvgMissLatency::cpu.inst 35446.948357                       # average overall miss latency ((Tick/Count))
system.cpu.icache.overallAvgMissLatency::total 35446.948357                       # average overall miss latency ((Tick/Count))
system.cpu.icache.blockedCycles::no_mshrs          158                       # number of cycles access was blocked (Cycle)
system.cpu.icache.blockedCycles::no_targets            0                       # number of cycles access was blocked (Cycle)
system.cpu.icache.blockedCauses::no_mshrs            3                       # number of times access was blocked (Count)
system.cpu.icache.blockedCauses::no_targets            0                       # number of times access was blocked (Count)
system.cpu.icache.avgBlocked::no_mshrs      52.666667                       # average number of cycles each access was blocked ((Cycle/Count))
system.cpu.icache.avgBlocked::no_targets          nan                       # average number of cycles each access was blocked ((Cycle/Count))
system.cpu.icache.demandMshrHits::cpu.inst           99                       # number of demand (read+write) MSHR hits (Count)
system.cpu.icache.demandMshrHits::total            99                       # number of demand (read+write) MSHR hits (Count)
system.cpu.icache.overallMshrHits::cpu.inst           99                       # number of overall MSHR hits (Count)
system.cpu.icache.overallMshrHits::total           99                       # number of overall MSHR hits (Count)
system.cpu.icache.demandMshrMisses::cpu.inst          966                       # number of demand (read+write) MSHR misses (Count)
system.cpu.icache.demandMshrMisses::total          966                       # number of demand (read+write) MSHR misses (Count)
system.cpu.icache.overallMshrMisses::cpu.inst          966                       # number of overall MSHR misses (Count)
system.cpu.icache.overallMshrMisses::total          966                       # number of overall MSHR misses (Count)
system.cpu.icache.demandMshrMissLatency::cpu.inst     32905000                       # number of demand (read+write) MSHR miss ticks (Tick)
system.cpu.icache.demandMshrMissLatency::total     32905000                       # number of demand (read+write) MSHR miss ticks (Tick)
system.cpu.icache.overallMshrMissLatency::cpu.inst     32905000                       # number of overall MSHR miss ticks (Tick)
system.cpu.icache.overallMshrMissLatency::total     32905000                       # number of overall MSHR miss ticks (Tick)
system.cpu.icache.demandMshrMissRate::cpu.inst     0.000226                       # mshr miss ratio for demand accesses (Ratio)
system.cpu.icache.demandMshrMissRate::total     0.000226                       # mshr miss ratio for demand accesses (Ratio)
system.cpu.icache.overallMshrMissRate::cpu.inst     0.000226                       # mshr miss ratio for overall accesses (Ratio)
system.cpu.icache.overallMshrMissRate::total     0.000226                       # mshr miss ratio for overall accesses (Ratio)
system.cpu.icache.demandAvgMshrMissLatency::cpu.inst 34063.146998                       # average overall mshr miss latency ((Tick/Count))
system.cpu.icache.demandAvgMshrMissLatency::total 34063.146998                       # average overall mshr miss latency ((Tick/Count))
system.cpu.icache.overallAvgMshrMissLatency::cpu.inst 34063.146998                       # average overall mshr miss latency ((Tick/Count))
system.cpu.icache.overallAvgMshrMissLatency::total 34063.146998                       # average overall mshr miss latency ((Tick/Count))
system.cpu.icache.replacements                    965                       # number of replacements (Count)
system.cpu.icache.ReadReq.hits::cpu.inst      4275910                       # number of ReadReq hits (Count)
system.cpu.icache.ReadReq.hits::total         4275910                       # number of ReadReq hits (Count)
system.cpu.icache.ReadReq.misses::cpu.inst         1065                       # number of ReadReq misses (Count)
system.cpu.icache.ReadReq.misses::total          1065                       # number of ReadReq misses (Count)
system.cpu.icache.ReadReq.missLatency::cpu.inst     37751000                       # number of ReadReq miss ticks (Tick)
system.cpu.icache.ReadReq.missLatency::total     37751000                       # number of ReadReq miss ticks (Tick)
system.cpu.icache.ReadReq.accesses::cpu.inst      4276975                       # number of ReadReq accesses(hits+misses) (Count)
system.cpu.icache.ReadReq.accesses::total      4276975                       # number of ReadReq accesses(hits+misses) (Count)
system.cpu.icache.ReadReq.missRate::cpu.inst     0.000249                       # miss rate for ReadReq accesses (Ratio)
system.cpu.icache.ReadReq.missRate::total     0.000249                       # miss rate for ReadReq accesses (Ratio)
system.cpu.icache.ReadReq.avgMissLatency::cpu.inst 35446.948357                       # average ReadReq miss latency ((Tick/Count))
system.cpu.icache.ReadReq.avgMissLatency::total 35446.948357                       # average ReadReq miss latency ((Tick/Count))
system.cpu.icache.ReadReq.mshrHits::cpu.inst           99                       # number of ReadReq MSHR hits (Count)
system.cpu.icache.ReadReq.mshrHits::total           99                       # number of ReadReq MSHR hits (Count)
system.cpu.icache.ReadReq.mshrMisses::cpu.inst          966                       # number of ReadReq MSHR misses (Count)
system.cpu.icache.ReadReq.mshrMisses::total          966                       # number of ReadReq MSHR misses (Count)
system.cpu.icache.ReadReq.mshrMissLatency::cpu.inst     32905000                       # number of ReadReq MSHR miss ticks (Tick)
system.cpu.icache.ReadReq.mshrMissLatency::total     32905000                       # number of ReadReq MSHR miss ticks (Tick)
system.cpu.icache.ReadReq.mshrMissRate::cpu.inst     0.000226                       # mshr miss rate for ReadReq accesses (Ratio)
system.cpu.icache.ReadReq.mshrMissRate::total     0.000226                       # mshr miss rate for ReadReq accesses (Ratio)
system.cpu.icache.ReadReq.avgMshrMissLatency::cpu.inst 34063.146998                       # average ReadReq mshr miss latency ((Tick/Count))
system.cpu.icache.ReadReq.avgMshrMissLatency::total 34063.146998                       # average ReadReq mshr miss latency ((Tick/Count))
system.cpu.icache.power_state.pwrStateResidencyTicks::UNDEFINED   8875028500                       # Cumulative time (in ticks) in various power states (Tick)
system.cpu.icache.tags.tagsInUse            63.999926                       # Average ticks per tags in use ((Tick/Count))
system.cpu.icache.tags.totalRefs              4265576                       # Total number of references to valid blocks. (Count)
system.cpu.icache.tags.sampledRefs                966                       # Sample count of references to valid blocks. (Count)
system.cpu.icache.tags.avgRefs            4415.710145                       # Average number of references to valid blocks. ((Count/Count))
system.cpu.icache.tags.warmupTick            11986500                       # The tick when the warmup percentage was hit. (Tick)
system.cpu.icache.tags.occupancies::cpu.inst    63.999926                       # Average occupied blocks per tick, per requestor ((Count/Tick))
system.cpu.icache.tags.avgOccs::cpu.inst     0.999999                       # Average percentage of cache occupancy ((Ratio/Tick))
system.cpu.icache.tags.avgOccs::total        0.999999                       # Average percentage of cache occupancy ((Ratio/Tick))
system.cpu.icache.tags.occupanciesTaskId::1024           64                       # Occupied blocks per task id (Count)
system.cpu.icache.tags.ageTaskId_1024::0           40                       # Occupied blocks per task id, per block age (Count)
system.cpu.icache.tags.ageTaskId_1024::3           24                       # Occupied blocks per task id, per block age (Count)
system.cpu.icache.tags.ratioOccsTaskId::1024            1                       # Ratio of occupied blocks and all blocks, per task id (Ratio)
system.cpu.icache.tags.tagAccesses            8554916                       # Number of tag accesses (Count)
system.cpu.icache.tags.dataAccesses           8554916                       # Number of data accesses (Count)
system.cpu.icache.tags.power_state.pwrStateResidencyTicks::UNDEFINED   8875028500                       # Cumulative time (in ticks) in various power states (Tick)
system.cpu.iew.idleCycles                           0                       # Number of cycles IEW is idle (Cycle)
system.cpu.iew.squashCycles                    125332                       # Number of cycles IEW is squashing (Cycle)
system.cpu.iew.blockCycles                     390492                       # Number of cycles IEW is blocking (Cycle)
system.cpu.iew.unblockCycles                     1650                       # Number of cycles IEW is unblocking (Cycle)
system.cpu.iew.dispatchedInsts               43920747                       # Number of instructions dispatched to IQ (Count)
system.cpu.iew.dispSquashedInsts                  328                       # Number of squashed instructions skipped by dispatch (Count)
system.cpu.iew.dispLoadInsts                 14331553                       # Number of dispatched load instructions (Count)
system.cpu.iew.dispStoreInsts                 3521901                       # Number of dispatched store instructions (Count)
system.cpu.iew.dispNonSpecInsts                    16                       # Number of dispatched non-speculative instructions (Count)
system.cpu.iew.iqFullEvents                       628                       # Number of times the IQ has become full, causing a stall (Count)
system.cpu.iew.lsqFullEvents                      402                       # Number of times the LSQ has become full, causing a stall (Count)
system.cpu.iew.memOrderViolationEvents            161                       # Number of memory order violations (Count)
system.cpu.iew.predictedTakenIncorrect          62319                       # Number of branches that were predicted taken incorrectly (Count)
system.cpu.iew.predictedNotTakenIncorrect        63177                       # Number of branches that were predicted not taken incorrectly (Count)
system.cpu.iew.branchMispredicts               125496                       # Number of branch mispredicts detected at execute (Count)
system.cpu.iew.instsToCommit                 42703336                       # Cumulative count of insts sent to commit (Count)
system.cpu.iew.writebackCount                42598990                       # Cumulative count of insts written-back (Count)
system.cpu.iew.producerInst                  36610827                       # Number of instructions producing a value (Count)
system.cpu.iew.consumerInst                  39362680                       # Number of instructions consuming a value (Count)
system.cpu.iew.wbRate                        2.452194                       # Insts written-back per cycle ((Count/Cycle))
system.cpu.iew.wbFanout                      0.930090                       # Average fanout of values written-back ((Count/Count))
system.cpu.interrupts.clk_domain.clock           8000                       # Clock period in ticks (Tick)
system.cpu.lsq0.forwLoads                     7556113                       # Number of loads that had data forwarded from stores (Count)
system.cpu.lsq0.squashedLoads                  992045                       # Number of loads squashed (Count)
system.cpu.lsq0.ignoredResponses                11071                       # Number of memory responses ignored because the instruction is squashed (Count)
system.cpu.lsq0.memOrderViolation                 161                       # Number of memory ordering violations (Count)
system.cpu.lsq0.squashedStores                 305875                       # Number of stores squashed (Count)
system.cpu.lsq0.rescheduledLoads                    8                       # Number of loads that were rescheduled (Count)
system.cpu.lsq0.blockedByCache                      7                       # Number of times an access to memory failed due to the cache being blocked (Count)
system.cpu.lsq0.loadToUse::samples           13339506                       # Distribution of cycle latency between the first time a load is issued and its completion (Unspecified)
system.cpu.lsq0.loadToUse::mean              2.599009                       # Distribution of cycle latency between the first time a load is issued and its completion (Unspecified)
system.cpu.lsq0.loadToUse::stdev             2.403703                       # Distribution of cycle latency between the first time a load is issued and its completion (Unspecified)
system.cpu.lsq0.loadToUse::0-9               13335809     99.97%     99.97% # Distribution of cycle latency between the first time a load is issued and its completion (Unspecified)
system.cpu.lsq0.loadToUse::10-19                   45      0.00%     99.97% # Distribution of cycle latency between the first time a load is issued and its completion (Unspecified)
system.cpu.lsq0.loadToUse::20-29                  341      0.00%     99.98% # Distribution of cycle latency between the first time a load is issued and its completion (Unspecified)
system.cpu.lsq0.loadToUse::30-39                   17      0.00%     99.98% # Distribution of cycle latency between the first time a load is issued and its completion (Unspecified)
system.cpu.lsq0.loadToUse::40-49                    2      0.00%     99.98% # Distribution of cycle latency between the first time a load is issued and its completion (Unspecified)
system.cpu.lsq0.loadToUse::50-59                   15      0.00%     99.98% # Distribution of cycle latency between the first time a load is issued and its completion (Unspecified)
system.cpu.lsq0.loadToUse::60-69                   10      0.00%     99.98% # Distribution of cycle latency between the first time a load is issued and its completion (Unspecified)
system.cpu.lsq0.loadToUse::70-79                   34      0.00%     99.98% # Distribution of cycle latency between the first time a load is issued and its completion (Unspecified)
system.cpu.lsq0.loadToUse::80-89                   39      0.00%     99.98% # Distribution of cycle latency between the first time a load is issued and its completion (Unspecified)
system.cpu.lsq0.loadToUse::90-99                  153      0.00%     99.98% # Distribution of cycle latency between the first time a load is issued and its completion (Unspecified)
system.cpu.lsq0.loadToUse::100-109                233      0.00%     99.98% # Distribution of cycle latency between the first time a load is issued and its completion (Unspecified)
system.cpu.lsq0.loadToUse::110-119                404      0.00%     99.98% # Distribution of cycle latency between the first time a load is issued and its completion (Unspecified)
system.cpu.lsq0.loadToUse::120-129                377      0.00%     99.98% # Distribution of cycle latency between the first time a load is issued and its completion (Unspecified)
system.cpu.lsq0.loadToUse::130-139               1651      0.01%    100.00% # Distribution of cycle latency between the first time a load is issued and its completion (Unspecified)
system.cpu.lsq0.loadToUse::140-149                 99      0.00%    100.00% # Distribution of cycle latency between the first time a load is issued and its completion (Unspecified)
system.cpu.lsq0.loadToUse::150-159                 27      0.00%    100.00% # Distribution of cycle latency between the first time a load is issued and its completion (Unspecified)
system.cpu.lsq0.loadToUse::160-169                139      0.00%    100.00% # Distribution of cycle latency between the first time a load is issued and its completion (Unspecified)
system.cpu.lsq0.loadToUse::170-179                  8      0.00%    100.00% # Distribution of cycle latency between the first time a load is issued and its completion (Unspecified)
system.cpu.lsq0.loadToUse::190-199                 23      0.00%    100.00% # Distribution of cycle latency between the first time a load is issued and its completion (Unspecified)
system.cpu.lsq0.loadToUse::200-209                  5      0.00%    100.00% # Distribution of cycle latency between the first time a load is issued and its completion (Unspecified)
system.cpu.lsq0.loadToUse::230-239                  1      0.00%    100.00% # Distribution of cycle latency between the first time a load is issued and its completion (Unspecified)
system.cpu.lsq0.loadToUse::250-259                  2      0.00%    100.00% # Distribution of cycle latency between the first time a load is issued and its completion (Unspecified)
system.cpu.lsq0.loadToUse::260-269                  3      0.00%    100.00% # Distribution of cycle latency between the first time a load is issued and its completion (Unspecified)
system.cpu.lsq0.loadToUse::270-279                  3      0.00%    100.00% # Distribution of cycle latency between the first time a load is issued and its completion (Unspecified)
system.cpu.lsq0.loadToUse::280-289                  4      0.00%    100.00% # Distribution of cycle latency between the first time a load is issued and its completion (Unspecified)
system.cpu.lsq0.loadToUse::overflows               62      0.00%    100.00% # Distribution of cycle latency between the first time a load is issued and its completion (Unspecified)
system.cpu.lsq0.loadToUse::min_value                2                       # Distribution of cycle latency between the first time a load is issued and its completion (Unspecified)
system.cpu.lsq0.loadToUse::max_value              715                       # Distribution of cycle latency between the first time a load is issued and its completion (Unspecified)
system.cpu.lsq0.loadToUse::total             13339506                       # Distribution of cycle latency between the first time a load is issued and its completion (Unspecified)
system.cpu.mmu.dtb.rdAccesses                14017994                       # TLB accesses on read requests (Count)
system.cpu.mmu.dtb.wrAccesses                 3336573                       # TLB accesses on write requests (Count)
system.cpu.mmu.dtb.rdMisses                        42                       # TLB misses on read requests (Count)
system.cpu.mmu.dtb.wrMisses                         9                       # TLB misses on write requests (Count)
system.cpu.mmu.dtb.walker.power_state.pwrStateResidencyTicks::UNDEFINED   8875028500                       # Cumulative time (in ticks) in various power states (Tick)
system.cpu.mmu.itb.rdAccesses                       0                       # TLB accesses on read requests (Count)
system.cpu.mmu.itb.wrAccesses                 4277214                       # TLB accesses on write requests (Count)
system.cpu.mmu.itb.rdMisses                         0                       # TLB misses on read requests (Count)
system.cpu.mmu.itb.wrMisses                       271                       # TLB misses on write requests (Count)
system.cpu.mmu.itb.walker.power_state.pwrStateResidencyTicks::UNDEFINED   8875028500                       # Cumulative time (in ticks) in various power states (Tick)
system.cpu.power_state.pwrStateResidencyTicks::ON   8875028500                       # Cumulative time (in ticks) in various power states (Tick)
system.cpu.rename.squashCycles                 125332                       # Number of cycles rename is squashing (Cycle)
system.cpu.rename.idleCycles                  4282833                       # Number of cycles rename is idle (Cycle)
system.cpu.rename.blockCycles                  438911                       # Number of cycles rename is blocking (Cycle)
system.cpu.rename.serializeStallCycles            154                       # count of cycles rename stalled for serializing inst (Cycle)
system.cpu.rename.runCycles                  12382560                       # Number of cycles rename is running (Cycle)
system.cpu.rename.unblockCycles                114310                       # Number of cycles rename is unblocking (Cycle)
system.cpu.rename.renamedInsts               44447570                       # Number of instructions processed by rename (Count)
system.cpu.rename.ROBFullEvents                   350                       # Number of times rename has blocked due to ROB full (Count)
system.cpu.rename.IQFullEvents                  80105                       # Number of times rename has blocked due to IQ full (Count)
[...]
system.mem_ctrls.dram.numReads::cpu.inst          433                       # Number of read requests responded to by this memory (Count)
system.mem_ctrls.dram.numReads::cpu.data         1390                       # Number of read requests responded to by this memory (Count)
system.mem_ctrls.dram.numReads::total            1823                       # Number of read requests responded to by this memory (Count)
system.mem_ctrls.dram.numWrites::writebacks          122                       # Number of write requests responded to by this memory (Count)
system.mem_ctrls.dram.numWrites::total            122                       # Number of write requests responded to by this memory (Count)
system.mem_ctrls.dram.bwRead::cpu.inst        3187653                       # Total read bandwidth from this memory ((Byte/Second))
system.mem_ctrls.dram.bwRead::cpu.data       10232881                       # Total read bandwidth from this memory ((Byte/Second))
system.mem_ctrls.dram.bwRead::total          13420534                       # Total read bandwidth from this memory ((Byte/Second))
system.mem_ctrls.dram.bwInstRead::cpu.inst      3187653                       # Instruction read bandwidth from this memory ((Byte/Second))
system.mem_ctrls.dram.bwInstRead::total       3187653                       # Instruction read bandwidth from this memory ((Byte/Second))
system.mem_ctrls.dram.bwWrite::writebacks       898138                       # Write bandwidth from this memory ((Byte/Second))
system.mem_ctrls.dram.bwWrite::total           898138                       # Write bandwidth from this memory ((Byte/Second))
system.mem_ctrls.dram.bwTotal::writebacks       898138                       # Total bandwidth to/from this memory ((Byte/Second))
system.mem_ctrls.dram.bwTotal::cpu.inst       3187653                       # Total bandwidth to/from this memory ((Byte/Second))
system.mem_ctrls.dram.bwTotal::cpu.data      10232881                       # Total bandwidth to/from this memory ((Byte/Second))
system.mem_ctrls.dram.bwTotal::total         14318672                       # Total bandwidth to/from this memory ((Byte/Second))
system.mem_ctrls.dram.readBursts                 1800                       # Number of DRAM read bursts (Count)
system.mem_ctrls.dram.writeBursts                 130                       # Number of DRAM write bursts (Count)
system.mem_ctrls.dram.perBankRdBursts::0          180                       # Per bank write bursts (Count)
system.mem_ctrls.dram.perBankRdBursts::1          174                       # Per bank write bursts (Count)
system.mem_ctrls.dram.perBankRdBursts::2          103                       # Per bank write bursts (Count)
system.mem_ctrls.dram.perBankRdBursts::3          153                       # Per bank write bursts (Count)
system.mem_ctrls.dram.perBankRdBursts::4          161                       # Per bank write bursts (Count)
system.mem_ctrls.dram.perBankRdBursts::5           41                       # Per bank write bursts (Count)
system.mem_ctrls.dram.perBankRdBursts::6           24                       # Per bank write bursts (Count)
system.mem_ctrls.dram.perBankRdBursts::7           19                       # Per bank write bursts (Count)
system.mem_ctrls.dram.perBankRdBursts::8          137                       # Per bank write bursts (Count)
system.mem_ctrls.dram.perBankRdBursts::9           61                       # Per bank write bursts (Count)
system.mem_ctrls.dram.perBankRdBursts::10          129                       # Per bank write bursts (Count)
system.mem_ctrls.dram.perBankRdBursts::11          142                       # Per bank write bursts (Count)
system.mem_ctrls.dram.perBankRdBursts::12          143                       # Per bank write bursts (Count)
system.mem_ctrls.dram.perBankRdBursts::13           82                       # Per bank write bursts (Count)
system.mem_ctrls.dram.perBankRdBursts::14          140                       # Per bank write bursts (Count)
system.mem_ctrls.dram.perBankRdBursts::15          111                       # Per bank write bursts (Count)
system.mem_ctrls.dram.perBankWrBursts::0            2                       # Per bank write bursts (Count)
system.mem_ctrls.dram.perBankWrBursts::1           15                       # Per bank write bursts (Count)
system.mem_ctrls.dram.perBankWrBursts::2            1                       # Per bank write bursts (Count)
system.mem_ctrls.dram.perBankWrBursts::3            6                       # Per bank write bursts (Count)
system.mem_ctrls.dram.perBankWrBursts::4            1                       # Per bank write bursts (Count)
system.mem_ctrls.dram.perBankWrBursts::5            0                       # Per bank write bursts (Count)
system.mem_ctrls.dram.perBankWrBursts::6            2                       # Per bank write bursts (Count)
system.mem_ctrls.dram.perBankWrBursts::7            0                       # Per bank write bursts (Count)
system.mem_ctrls.dram.perBankWrBursts::8           60                       # Per bank write bursts (Count)
system.mem_ctrls.dram.perBankWrBursts::9           38                       # Per bank write bursts (Count)
system.mem_ctrls.dram.perBankWrBursts::10            0                       # Per bank write bursts (Count)
system.mem_ctrls.dram.perBankWrBursts::11            0                       # Per bank write bursts (Count)
system.mem_ctrls.dram.perBankWrBursts::12            0                       # Per bank write bursts (Count)
system.mem_ctrls.dram.perBankWrBursts::13            3                       # Per bank write bursts (Count)
system.mem_ctrls.dram.perBankWrBursts::14            1                       # Per bank write bursts (Count)
system.mem_ctrls.dram.perBankWrBursts::15            1                       # Per bank write bursts (Count)
system.mem_ctrls.dram.totQLat                14127750                       # Total ticks spent queuing (Tick)
system.mem_ctrls.dram.totBusLat               9000000                       # Total ticks spent in databus transfers (Tick)
system.mem_ctrls.dram.totMemAccLat           47877750                       # Total ticks spent from burst creation until serviced by the DRAM (Tick)
system.mem_ctrls.dram.avgQLat                 7848.75                       # Average queueing delay per DRAM burst ((Tick/Count))
system.mem_ctrls.dram.avgBusLat               5000.00                       # Average bus latency per DRAM burst ((Tick/Count))
system.mem_ctrls.dram.avgMemAccLat           26598.75                       # Average memory access latency per DRAM burst ((Tick/Count))
system.mem_ctrls.dram.readRowHits                1524                       # Number of row buffer hits during reads (Count)
system.mem_ctrls.dram.writeRowHits                 98                       # Number of row buffer hits during writes (Count)
system.mem_ctrls.dram.readRowHitRate            84.67                       # Row buffer hit rate for reads (Ratio)
system.mem_ctrls.dram.writeRowHitRate           75.38                       # Row buffer hit rate for writes (Ratio)
system.mem_ctrls.dram.bytesPerActivate::samples          304                       # Bytes accessed per row activation (Byte)
system.mem_ctrls.dram.bytesPerActivate::mean   398.736842                       # Bytes accessed per row activation (Byte)
system.mem_ctrls.dram.bytesPerActivate::gmean   238.578206                       # Bytes accessed per row activation (Byte)
system.mem_ctrls.dram.bytesPerActivate::stdev   368.256023                       # Bytes accessed per row activation (Byte)
system.mem_ctrls.dram.bytesPerActivate::0-127           88     28.95%     28.95% # Bytes accessed per row activation (Byte)
system.mem_ctrls.dram.bytesPerActivate::128-255           60     19.74%     48.68% # Bytes accessed per row activation (Byte)
system.mem_ctrls.dram.bytesPerActivate::256-383           39     12.83%     61.51% # Bytes accessed per row activation (Byte)
system.mem_ctrls.dram.bytesPerActivate::384-511           16      5.26%     66.78% # Bytes accessed per row activation (Byte)
system.mem_ctrls.dram.bytesPerActivate::512-639           17      5.59%     72.37% # Bytes accessed per row activation (Byte)
system.mem_ctrls.dram.bytesPerActivate::640-767           11      3.62%     75.99% # Bytes accessed per row activation (Byte)
system.mem_ctrls.dram.bytesPerActivate::768-895            8      2.63%     78.62% # Bytes accessed per row activation (Byte)
system.mem_ctrls.dram.bytesPerActivate::896-1023            8      2.63%     81.25% # Bytes accessed per row activation (Byte)
system.mem_ctrls.dram.bytesPerActivate::1024-1151           57     18.75%    100.00% # Bytes accessed per row activation (Byte)
system.mem_ctrls.dram.bytesPerActivate::total          304                       # Bytes accessed per row activation (Byte)
system.mem_ctrls.dram.bytesRead                115200                       # Total bytes read (Byte)
system.mem_ctrls.dram.bytesWritten               8320                       # Total bytes written (Byte)
system.mem_ctrls.dram.avgRdBW               13.251213                       # Average DRAM read bandwidth in MiBytes/s ((Byte/Second))
system.mem_ctrls.dram.avgWrBW                0.957032                       # Average DRAM write bandwidth in MiBytes/s ((Byte/Second))
system.mem_ctrls.dram.peakBW                 12800.00                       # Theoretical peak bandwidth in MiByte/s ((Byte/Second))
system.mem_ctrls.dram.busUtil                    0.11                       # Data bus utilization in percentage (Ratio)
system.mem_ctrls.dram.busUtilRead                0.10                       # Data bus utilization in percentage for reads (Ratio)
system.mem_ctrls.dram.busUtilWrite               0.01                       # Data bus utilization in percentage for writes (Ratio)
system.mem_ctrls.dram.pageHitRate               84.04                       # Row buffer hit rate, read and write combined (Ratio)
system.mem_ctrls.dram.power_state.pwrStateResidencyTicks::UNDEFINED   8882678000                       # Cumulative time (in ticks) in various power states (Tick)
system.mem_ctrls.dram.rank0.actEnergy         1120980                       # Energy for activate commands per rank (pJ) (Joule)
system.mem_ctrls.dram.rank0.preEnergy          576840                       # Energy for precharge commands per rank (pJ) (Joule)
system.mem_ctrls.dram.rank0.readEnergy        6240360                       # Energy for read commands per rank (pJ) (Joule)
system.mem_ctrls.dram.rank0.writeEnergy        140940                       # Energy for write commands per rank (pJ) (Joule)
system.mem_ctrls.dram.rank0.refreshEnergy 685938240.000000                       # Energy for refresh commands per rank (pJ) (Joule)
system.mem_ctrls.dram.rank0.actBackEnergy    190508250                       # Energy for active background per rank (pJ) (Joule)
system.mem_ctrls.dram.rank0.preBackEnergy   3178560000                       # Energy for precharge background per rank (pJ) (Joule)
system.mem_ctrls.dram.rank0.actPowerDownEnergy            0                       # Energy for active power-down per rank (pJ) (Joule)
system.mem_ctrls.dram.rank0.prePowerDownEnergy            0                       # Energy for precharge power-down per rank (pJ) (Joule)
system.mem_ctrls.dram.rank0.selfRefreshEnergy            0                       # Energy for self refresh per rank (pJ) (Joule)
system.mem_ctrls.dram.rank0.totalEnergy    4063085610                       # Total energy per rank (pJ) (Joule)
system.mem_ctrls.dram.rank0.averagePower   467.368181                       # Core power per rank (mW) (Watt)
system.mem_ctrls.dram.rank0.totalIdleTime            0                       # Total Idle time Per DRAM Rank (Tick)
system.mem_ctrls.dram.rank0.pwrStateTime::IDLE   8261682000                       # Time in different power states (Tick)
system.mem_ctrls.dram.rank0.pwrStateTime::REF    290160000                       # Time in different power states (Tick)
system.mem_ctrls.dram.rank0.pwrStateTime::SREF            0                       # Time in different power states (Tick)
system.mem_ctrls.dram.rank0.pwrStateTime::PRE_PDN            0                       # Time in different power states (Tick)
system.mem_ctrls.dram.rank0.pwrStateTime::ACT    143439000                       # Time in different power states (Tick)
system.mem_ctrls.dram.rank0.pwrStateTime::ACT_PDN            0                       # Time in different power states (Tick)
system.mem_ctrls.dram.rank1.actEnergy         1163820                       # Energy for activate commands per rank (pJ) (Joule)
system.mem_ctrls.dram.rank1.preEnergy          592020                       # Energy for precharge commands per rank (pJ) (Joule)
system.mem_ctrls.dram.rank1.readEnergy        6875820                       # Energy for read commands per rank (pJ) (Joule)
system.mem_ctrls.dram.rank1.writeEnergy        537660                       # Energy for write commands per rank (pJ) (Joule)
system.mem_ctrls.dram.rank1.refreshEnergy 685938240.000000                       # Energy for refresh commands per rank (pJ) (Joule)
system.mem_ctrls.dram.rank1.actBackEnergy    194968500                       # Energy for active background per rank (pJ) (Joule)
system.mem_ctrls.dram.rank1.preBackEnergy   3174901440                       # Energy for precharge background per rank (pJ) (Joule)
system.mem_ctrls.dram.rank1.actPowerDownEnergy            0                       # Energy for active power-down per rank (pJ) (Joule)
system.mem_ctrls.dram.rank1.prePowerDownEnergy            0                       # Energy for precharge power-down per rank (pJ) (Joule)
system.mem_ctrls.dram.rank1.selfRefreshEnergy            0                       # Energy for self refresh per rank (pJ) (Joule)
system.mem_ctrls.dram.rank1.totalEnergy    4064977500                       # Total energy per rank (pJ) (Joule)
system.mem_ctrls.dram.rank1.averagePower   467.585801                       # Core power per rank (mW) (Watt)
system.mem_ctrls.dram.rank1.totalIdleTime            0                       # Total Idle time Per DRAM Rank (Tick)
system.mem_ctrls.dram.rank1.pwrStateTime::IDLE   8252293000                       # Time in different power states (Tick)
system.mem_ctrls.dram.rank1.pwrStateTime::REF    290160000                       # Time in different power states (Tick)
system.mem_ctrls.dram.rank1.pwrStateTime::SREF            0                       # Time in different power states (Tick)
system.mem_ctrls.dram.rank1.pwrStateTime::PRE_PDN            0                       # Time in different power states (Tick)
system.mem_ctrls.dram.rank1.pwrStateTime::ACT    153081250                       # Time in different power states (Tick)
system.mem_ctrls.dram.rank1.pwrStateTime::ACT_PDN            0                       # Time in different power states (Tick)
system.mem_ctrls.power_state.pwrStateResidencyTicks::UNDEFINED   8882678000                       # Cumulative time (in ticks) in various power states (Tick)
system.membus.transDist::ReadResp                1678                       # Transaction distribution (Count)
system.membus.transDist::WritebackDirty           122                       # Transaction distribution (Count)
system.membus.transDist::CleanEvict              1701                       # Transaction distribution (Count)
system.membus.transDist::ReadExReq                145                       # Transaction distribution (Count)
system.membus.transDist::ReadExResp               145                       # Transaction distribution (Count)
system.membus.transDist::ReadSharedReq           1679                       # Transaction distribution (Count)
system.membus.pktCount_system.l2cache.mem_side_port::system.mem_ctrls.port         5470                       # Packet count per connected requestor and responder (Count)
system.membus.pktCount_system.l2cache.mem_side_port::total         5470                       # Packet count per connected requestor and responder (Count)
system.membus.pktCount::total                    5470                       # Packet count per connected requestor and responder (Count)
system.membus.pktSize_system.l2cache.mem_side_port::system.mem_ctrls.port       124480                       # Cumulative packet size per connected requestor and responder (Byte)
system.membus.pktSize_system.l2cache.mem_side_port::total       124480                       # Cumulative packet size per connected requestor and responder (Byte)
system.membus.pktSize::total                   124480                       # Cumulative packet size per connected requestor and responder (Byte)
system.membus.snoops                                0                       # Total snoops (Count)
system.membus.snoopTraffic                          0                       # Total snoop traffic (Byte)
system.membus.snoopFanout::samples               1824                       # Request fanout histogram (Count)
system.membus.snoopFanout::mean                     0                       # Request fanout histogram (Count)
system.membus.snoopFanout::stdev                    0                       # Request fanout histogram (Count)
system.membus.snoopFanout::underflows               0      0.00%      0.00% # Request fanout histogram (Count)
system.membus.snoopFanout::0                     1824    100.00%    100.00% # Request fanout histogram (Count)
system.membus.snoopFanout::1                        0      0.00%    100.00% # Request fanout histogram (Count)
system.membus.snoopFanout::overflows                0      0.00%    100.00% # Request fanout histogram (Count)
system.membus.snoopFanout::min_value                0                       # Request fanout histogram (Count)
system.membus.snoopFanout::max_value                0                       # Request fanout histogram (Count)
system.membus.snoopFanout::total                 1824                       # Request fanout histogram (Count)
system.membus.power_state.pwrStateResidencyTicks::UNDEFINED   8882678000                       # Cumulative time (in ticks) in various power states (Tick)
system.membus.reqLayer2.occupancy             2067500                       # Layer occupancy (ticks) (Tick)
system.membus.reqLayer2.utilization               0.0                       # Layer utilization (Ratio)
system.membus.respLayer1.occupancy            4954750                       # Layer occupancy (ticks) (Tick)
system.membus.respLayer1.utilization              0.0                       # Layer utilization (Ratio)
system.membus.snoop_filter.totRequests           3647                       # Total number of requests made to the snoop filter. (Count)
system.membus.snoop_filter.hitSingleRequests         1823                       # Number of requests hitting in the snoop filter with a single holder of the requested data. (Count)
system.membus.snoop_filter.hitMultiRequests            0                       # Number of requests hitting in the snoop filter with multiple (>1) holders of the requested data. (Count)
system.membus.snoop_filter.totSnoops                0                       # Total number of snoops made to the snoop filter. (Count)
system.membus.snoop_filter.hitSingleSnoops            0                       # Number of snoops hitting in the snoop filter with a single holder of the requested data. (Count)
system.membus.snoop_filter.hitMultiSnoops            0                       # Number of snoops hitting in the snoop filter with multiple (>1) holders of the requested data. (Count)
system.workload.inst.arm                            0                       # number of arm instructions executed (Count)
system.workload.inst.quiesce                        0                       # number of quiesce instructions executed (Count)

---------- End Simulation Statistics   ----------
