
---------- Begin Simulation Statistics ----------
simSeconds                                   0.017317                       # Number of seconds simulated (Second)
simTicks                                  17316848500                       # Number of ticks simulated (Tick)
finalTick                                 17545772500                       # Number of ticks from beginning of simulation (restored from checkpoints and never reset) (Tick)
simFreq                                  1000000000000                       # The number of ticks per simulated second ((Tick/Second))
hostSeconds                                    110.46                       # Real time elapsed on the host (Second)
hostTickRate                                156777224                       # The number of ticks simulated per host second (ticks/s) ((Tick/Second))
hostMemory                                     919900                       # Number of bytes of host memory used (Byte)
simInsts                                     26966475                       # Number of instructions simulated (Count)
simOps                                       41119203                       # Number of ops (including micro ops) simulated (Count)
hostInstRate                                   244139                       # Simulator instruction rate (inst/s) ((Count/Second))
hostOpRate                                     372270                       # Simulator op (including micro ops) rate (op/s) ((Count/Second))
system.clk_domain.clock                           500                       # Clock period in ticks (Tick)
system.clk_domain.voltage_domain.voltage            1                       # Voltage in Volts (Volt)
system.cpu.numCycles                         34633697                       # Number of cpu cycles simulated (Cycle)
system.cpu.numWorkItemsStarted                      0                       # Number of work items this cpu started (Count)
system.cpu.numWorkItemsCompleted                    0                       # Number of work items this cpu completed (Count)
system.cpu.instsAdded                        44111065                       # Number of instructions added to the IQ (excludes non-spec) (Count)
system.cpu.nonSpecInstsAdded                       18                       # Number of non-speculative instructions added to the IQ (Count)
system.cpu.instsIssued                       43405332                       # Number of instructions issued (Count)
system.cpu.squashedInstsIssued                  19788                       # Number of squashed instructions issued (Count)
system.cpu.squashedInstsExamined              3164621                       # Number of squashed instructions iterated over during squash; mainly for profiling (Count)
system.cpu.squashedOperandsExamined           4504972                       # Number of squashed operands that are examined and possibly removed from graph (Count)
system.cpu.squashedNonSpecRemoved                   8                       # Number of squashed non-spec instructions that were removed (Count)
system.cpu.numIssuedDist::samples            34601969                       # Number of insts issued each cycle (Count)
system.cpu.numIssuedDist::mean               1.254418                       # Number of insts issued each cycle (Count)
system.cpu.numIssuedDist::stdev              0.774731                       # Number of insts issued each cycle (Count)
system.cpu.numIssuedDist::underflows                0      0.00%      0.00% # Number of insts issued each cycle (Count)
system.cpu.numIssuedDist::0                   7102368     20.53%     20.53% # Number of insts issued each cycle (Count)
system.cpu.numIssuedDist::1                  11593870     33.51%     54.03% # Number of insts issued each cycle (Count)
system.cpu.numIssuedDist::2                  15905731     45.97%    100.00% # Number of insts issued each cycle (Count)
system.cpu.numIssuedDist::overflows                 0      0.00%    100.00% # Number of insts issued each cycle (Count)
system.cpu.numIssuedDist::min_value                 0                       # Number of insts issued each cycle (Count)
system.cpu.numIssuedDist::max_value                 2                       # Number of insts issued each cycle (Count)
system.cpu.numIssuedDist::total              34601969                       # Number of insts issued each cycle (Count)
system.cpu.statFuBusy::No_OpClass                   0                       # attempts to use FU when none available (Count)
system.cpu.statFuBusy::IntAlu                       0                       # attempts to use FU when none available (Count)
system.cpu.statFuBusy::IntMult                      0                       # attempts to use FU when none available (Count)
system.cpu.statFuBusy::IntDiv                       0                       # attempts to use FU when none available (Count)
system.cpu.statFuBusy::FloatAdd                     0                       # attempts to use FU when none available (Count)
system.cpu.statFuBusy::FloatCmp                     0                       # attempts to use FU when none available (Count)
system.cpu.statFuBusy::FloatCvt                     0                       # attempts to use FU when none available (Count)
system.cpu.statFuBusy::FloatMult                    0                       # attempts to use FU when none available (Count)
system.cpu.statFuBusy::FloatMultAcc                 0                       # attempts to use FU when none available (Count)
system.cpu.statFuBusy::FloatDiv                     0                       # attempts to use FU when none available (Count)
system.cpu.statFuBusy::FloatMisc                    0                       # attempts to use FU when none available (Count)
system.cpu.statFuBusy::FloatSqrt                    0                       # attempts to use FU when none available (Count)
system.cpu.statFuBusy::SimdAdd                      0                       # attempts to use FU when none available (Count)
system.cpu.statFuBusy::SimdAddAcc                   0                       # attempts to use FU when none available (Count)
system.cpu.statFuBusy::SimdAlu                      0                       # attempts to use FU when none available (Count)
system.cpu.statFuBusy::SimdCmp                      0                       # attempts to use FU when none available (Count)
system.cpu.statFuBusy::SimdCvt                      0                       # attempts to use FU when none available (Count)
system.cpu.statFuBusy::SimdMisc                     0                       # attempts to use FU when none available (Count)
system.cpu.statFuBusy::SimdMult                     0                       # attempts to use FU when none available (Count)
system.cpu.statFuBusy::SimdMultAcc                  0                       # attempts to use FU when none available (Count)
system.cpu.statFuBusy::SimdShift                    0                       # attempts to use FU when none available (Count)
system.cpu.statFuBusy::SimdShiftAcc                 0                       # attempts to use FU when none available (Count)
system.cpu.statFuBusy::SimdDiv                      0                       # attempts to use FU when none available (Count)
system.cpu.statFuBusy::SimdSqrt                     0                       # attempts to use FU when none available (Count)
system.cpu.statFuBusy::SimdFloatAdd                 0                       # attempts to use FU when none available (Count)
system.cpu.statFuBusy::SimdFloatAlu                 0                       # attempts to use FU when none available (Count)
system.cpu.statFuBusy::SimdFloatCmp                 0                       # attempts to use FU when none available (Count)
system.cpu.statFuBusy::SimdFloatCvt                 0                       # attempts to use FU when none available (Count)
system.cpu.statFuBusy::SimdFloatDiv                 0                       # attempts to use FU when none available (Count)
system.cpu.statFuBusy::SimdFloatMisc                0                       # attempts to use FU when none available (Count)
system.cpu.statFuBusy::SimdFloatMult                0                       # attempts to use FU when none available (Count)
system.cpu.statFuBusy::SimdFloatMultAcc             0                       # attempts to use FU when none available (Count)
system.cpu.statFuBusy::SimdFloatSqrt                0                       # attempts to use FU when none available (Count)
system.cpu.statFuBusy::SimdReduceAdd                0                       # attempts to use FU when none available (Count)
system.cpu.statFuBusy::SimdReduceAlu                0                       # attempts to use FU when none available (Count)
system.cpu.statFuBusy::SimdReduceCmp                0                       # attempts to use FU when none available (Count)
system.cpu.statFuBusy::SimdFloatReduceAdd            0                       # attempts to use FU when none available (Count)
system.cpu.statFuBusy::SimdFloatReduceCmp            0                       # attempts to use FU when none available (Count)
system.cpu.statFuBusy::SimdAes                      0                       # attempts to use FU when none available (Count)
system.cpu.statFuBusy::SimdAesMix                   0                       # attempts to use FU when none available (Count)
system.cpu.statFuBusy::SimdSha1Hash                 0                       # attempts to use FU when none available (Count)
system.cpu.statFuBusy::SimdSha1Hash2                0                       # attempts to use FU when none available (Count)
system.cpu.statFuBusy::SimdSha256Hash               0                       # attempts to use FU when none available (Count)
system.cpu.statFuBusy::SimdSha256Hash2              0                       # attempts to use FU when none available (Count)
system.cpu.statFuBusy::SimdShaSigma2                0                       # attempts to use FU when none available (Count)
system.cpu.statFuBusy::SimdShaSigma3                0                       # attempts to use FU when none available (Count)
system.cpu.statFuBusy::SimdPredAlu                  0                       # attempts to use FU when none available (Count)
system.cpu.statFuBusy::MemRead                      0                       # attempts to use FU when none available (Count)
system.cpu.statFuBusy::MemWrite                     0                       # attempts to use FU when none available (Count)
system.cpu.statFuBusy::FloatMemRead                 0                       # attempts to use FU when none available (Count)
system.cpu.statFuBusy::FloatMemWrite                0                       # attempts to use FU when none available (Count)
system.cpu.statFuBusy::IprAccess                    0                       # attempts to use FU when none available (Count)
system.cpu.statFuBusy::InstPrefetch                 0                       # attempts to use FU when none available (Count)
system.cpu.statIssuedInstType_0::No_OpClass          475      0.00%      0.00% # Number of instructions issued per FU type, per thread (Count)
system.cpu.statIssuedInstType_0::IntAlu      25530516     58.82%     58.82% # Number of instructions issued per FU type, per thread (Count)
system.cpu.statIssuedInstType_0::IntMult        15051      0.03%     58.85% # Number of instructions issued per FU type, per thread (Count)
system.cpu.statIssuedInstType_0::IntDiv            88      0.00%     58.85% # Number of instructions issued per FU type, per thread (Count)
system.cpu.statIssuedInstType_0::FloatAdd           28      0.00%     58.85% # Number of instructions issued per FU type, per thread (Count)
system.cpu.statIssuedInstType_0::FloatCmp            0      0.00%     58.85% # Number of instructions issued per FU type, per thread (Count)
system.cpu.statIssuedInstType_0::FloatCvt           16      0.00%     58.85% # Number of instructions issued per FU type, per thread (Count)
system.cpu.statIssuedInstType_0::FloatMult            0      0.00%     58.85% # Number of instructions issued per FU type, per thread (Count)
system.cpu.statIssuedInstType_0::FloatMultAcc            0      0.00%     58.85% # Number of instructions issued per FU type, per thread (Count)
system.cpu.statIssuedInstType_0::FloatDiv            0      0.00%     58.85% # Number of instructions issued per FU type, per thread (Count)
system.cpu.statIssuedInstType_0::FloatMisc            0      0.00%     58.85% # Number of instructions issued per FU type, per thread (Count)
system.cpu.statIssuedInstType_0::FloatSqrt            0      0.00%     58.85% # Number of instructions issued per FU type, per thread (Count)
system.cpu.statIssuedInstType_0::SimdAdd            4      0.00%     58.85% # Number of instructions issued per FU type, per thread (Count)
system.cpu.statIssuedInstType_0::SimdAddAcc            0      0.00%     58.85% # Number of instructions issued per FU type, per thread (Count)
system.cpu.statIssuedInstType_0::SimdAlu           84      0.00%     58.86% # Number of instructions issued per FU type, per thread (Count)
system.cpu.statIssuedInstType_0::SimdCmp            0      0.00%     58.86% # Number of instructions issued per FU type, per thread (Count)
system.cpu.statIssuedInstType_0::SimdCvt           88      0.00%     58.86% # Number of instructions issued per FU type, per thread (Count)
system.cpu.statIssuedInstType_0::SimdMisc          184      0.00%     58.86% # Number of instructions issued per FU type, per thread (Count)
system.cpu.statIssuedInstType_0::SimdMult            0      0.00%     58.86% # Number of instructions issued per FU type, per thread (Count)
system.cpu.statIssuedInstType_0::SimdMultAcc            0      0.00%     58.86% # Number of instructions issued per FU type, per thread (Count)
system.cpu.statIssuedInstType_0::SimdShift            0      0.00%     58.86% # Number of instructions issued per FU type, per thread (Count)
system.cpu.statIssuedInstType_0::SimdShiftAcc            0      0.00%     58.86% # Number of instructions issued per FU type, per thread (Count)
system.cpu.statIssuedInstType_0::SimdDiv            0      0.00%     58.86% # Number of instructions issued per FU type, per thread (Count)
system.cpu.statIssuedInstType_0::SimdSqrt            0      0.00%     58.86% # Number of instructions issued per FU type, per thread (Count)
system.cpu.statIssuedInstType_0::SimdFloatAdd            0      0.00%     58.86% # Number of instructions issued per FU type, per thread (Count)
system.cpu.statIssuedInstType_0::SimdFloatAlu            0      0.00%     58.86% # Number of instructions issued per FU type, per thread (Count)
system.cpu.statIssuedInstType_0::SimdFloatCmp            0      0.00%     58.86% # Number of instructions issued per FU type, per thread (Count)
system.cpu.statIssuedInstType_0::SimdFloatCvt            0      0.00%     58.86% # Number of instructions issued per FU type, per thread (Count)
system.cpu.statIssuedInstType_0::SimdFloatDiv            0      0.00%     58.86% # Number of instructions issued per FU type, per thread (Count)
system.cpu.statIssuedInstType_0::SimdFloatMisc            0      0.00%     58.86% # Number of instructions issued per FU type, per thread (Count)
system.cpu.statIssuedInstType_0::SimdFloatMult            0      0.00%     58.86% # Number of instructions issued per FU type, per thread (Count)
system.cpu.statIssuedInstType_0::SimdFloatMultAcc            0      0.00%     58.86% # Number of instructions issued per FU type, per thread (Count)
system.cpu.statIssuedInstType_0::SimdFloatSqrt            0      0.00%     58.86% # Number of instructions issued per FU type, per thread (Count)
system.cpu.statIssuedInstType_0::SimdReduceAdd            0      0.00%     58.86% # Number of instructions issued per FU type, per thread (Count)
system.cpu.statIssuedInstType_0::SimdReduceAlu            0      0.00%     58.86% # Number of instructions issued per FU type, per thread (Count)
system.cpu.statIssuedInstType_0::SimdReduceCmp            0      0.00%     58.86% # Number of instructions issued per FU type, per thread (Count)
system.cpu.statIssuedInstType_0::SimdFloatReduceAdd            0      0.00%     58.86% # Number of instructions issued per FU type, per thread (Count)
system.cpu.statIssuedInstType_0::SimdFloatReduceCmp            0      0.00%     58.86% # Number of instructions issued per FU type, per thread (Count)
system.cpu.statIssuedInstType_0::SimdAes            0      0.00%     58.86% # Number of instructions issued per FU type, per thread (Count)
system.cpu.statIssuedInstType_0::SimdAesMix            0      0.00%     58.86% # Number of instructions issued per FU type, per thread (Count)
system.cpu.statIssuedInstType_0::SimdSha1Hash            0      0.00%     58.86% # Number of instructions issued per FU type, per thread (Count)
system.cpu.statIssuedInstType_0::SimdSha1Hash2            0      0.00%     58.86% # Number of instructions issued per FU type, per thread (Count)
system.cpu.statIssuedInstType_0::SimdSha256Hash            0      0.00%     58.86% # Number of instructions issued per FU type, per thread (Count)
system.cpu.statIssuedInstType_0::SimdSha256Hash2            0      0.00%     58.86% # Number of instructions issued per FU type, per thread (Count)
system.cpu.statIssuedInstType_0::SimdShaSigma2            0      0.00%     58.86% # Number of instructions issued per FU type, per thread (Count)
system.cpu.statIssuedInstType_0::SimdShaSigma3            0      0.00%     58.86% # Number of instructions issued per FU type, per thread (Count)
system.cpu.statIssuedInstType_0::SimdPredAlu            0      0.00%     58.86% # Number of instructions issued per FU type, per thread (Count)
system.cpu.statIssuedInstType_0::MemRead     14417029     33.21%     92.07% # Number of instructions issued per FU type, per thread (Count)
system.cpu.statIssuedInstType_0::MemWrite      3441612      7.93%    100.00% # Number of instructions issued per FU type, per thread (Count)
system.cpu.statIssuedInstType_0::FloatMemRead          100      0.00%    100.00% # Number of instructions issued per FU type, per thread (Count)
system.cpu.statIssuedInstType_0::FloatMemWrite           57      0.00%    100.00% # Number of instructions issued per FU type, per thread (Count)
system.cpu.statIssuedInstType_0::IprAccess            0      0.00%    100.00% # Number of instructions issued per FU type, per thread (Count)
system.cpu.statIssuedInstType_0::InstPrefetch            0      0.00%    100.00% # Number of instructions issued per FU type, per thread (Count)
system.cpu.statIssuedInstType_0::total       43405332                       # Number of instructions issued per FU type, per thread (Count)
system.cpu.issueRate                         1.253269                       # Inst issue rate ((Count/Cycle))
system.cpu.fuBusy                                   0                       # FU busy when requested (Count)
system.cpu.fuBusyRate                               0                       # FU busy rate (busy events/executed inst) ((Count/Count))
system.cpu.intInstQueueReads                121431178                       # Number of integer instruction queue reads (Count)
system.cpu.intInstQueueWrites                47275138                       # Number of integer instruction queue writes (Count)
system.cpu.intInstQueueWakeupAccesses        42556562                       # Number of integer instruction queue wakeup accesses (Count)
system.cpu.fpInstQueueReads                      1243                       # Number of floating instruction queue reads (Count)
system.cpu.fpInstQueueWrites                      628                       # Number of floating instruction queue writes (Count)
system.cpu.fpInstQueueWakeupAccesses              619                       # Number of floating instruction queue wakeup accesses (Count)
system.cpu.vecInstQueueReads                        0                       # Number of vector instruction queue reads (Count)
system.cpu.vecInstQueueWrites                       0                       # Number of vector instruction queue writes (Count)
system.cpu.vecInstQueueWakeupAccesses               0                       # Number of vector instruction queue wakeup accesses (Count)
system.cpu.intAluAccesses                    43404236                       # Number of integer alu accesses (Count)
system.cpu.fpAluAccesses                          621                       # Number of floating point alu accesses (Count)
system.cpu.vecAluAccesses                           0                       # Number of vector alu accesses (Count)
system.cpu.numInsts                          42801757                       # Number of executed instructions (Count)
system.cpu.numLoadInsts                      14168762                       # Number of load instructions executed (Count)
system.cpu.numSquashedInsts                    603575                       # Number of squashed instructions skipped in execute (Count)
system.cpu.numSwp                                   0                       # Number of swp insts executed (Count)
system.cpu.numNop                                   0                       # Number of nop insts executed (Count)
system.cpu.numRefs                           17530653                       # Number of memory reference insts executed (Count)
system.cpu.numBranches                        2557654                       # Number of branches executed (Count)
system.cpu.numStoreInsts                      3361891                       # Number of stores executed (Count)
system.cpu.numRate                           1.235841                       # Inst execution rate ((Count/Cycle))
system.cpu.timesIdled                             726                       # Number of times that the entire CPU went into an idle state and unscheduled itself (Count)
system.cpu.idleCycles                           31728                       # Total number of cycles that the CPU has spent unscheduled due to idling (Cycle)
system.cpu.committedInsts                    26871651                       # Number of Instructions Simulated (Count)
system.cpu.committedOps                      40946462                       # Number of Ops (including micro ops) Simulated (Count)
system.cpu.cpi                               1.288856                       # CPI: Cycles Per Instruction ((Cycle/Count))
system.cpu.totalCpi                          1.288856                       # CPI: Total CPI of All Threads ((Cycle/Count))
system.cpu.ipc                               0.775882                       # IPC: Instructions Per Cycle ((Count/Cycle))
system.cpu.totalIpc                          0.775882                       # IPC: Total IPC of All Threads ((Count/Cycle))
system.cpu.intRegfileReads                   44692548                       # Number of integer regfile reads (Count)
system.cpu.intRegfileWrites                  34150891                       # Number of integer regfile writes (Count)
system.cpu.fpRegfileReads                         979                       # Number of floating regfile reads (Count)
system.cpu.fpRegfileWrites                        504                       # Number of floating regfile writes (Count)
system.cpu.ccRegfileReads                    12719910                       # number of cc regfile reads (Count)
system.cpu.ccRegfileWrites                   13142698                       # number of cc regfile writes (Count)
system.cpu.miscRegfileReads                  24155662                       # number of misc regfile reads (Count)
system.cpu.miscRegfileWrites                        9                       # number of misc regfile writes (Count)
system.cpu.MemDepUnit__0.insertedLoads       14582817                       # Number of loads inserted to the mem dependence unit. (Count)
system.cpu.MemDepUnit__0.insertedStores       3596343                       # Number of stores inserted to the mem dependence unit. (Count)
system.cpu.MemDepUnit__0.conflictingLoads      1107832                       # Number of conflicting loads. (Count)
system.cpu.MemDepUnit__0.conflictingStores            1                       # Number of conflicting stores. (Count)
system.cpu.MemDepUnit__1.insertedLoads              0                       # Number of loads inserted to the mem dependence unit. (Count)
system.cpu.MemDepUnit__1.insertedStores             0                       # Number of stores inserted to the mem dependence unit. (Count)
system.cpu.MemDepUnit__1.conflictingLoads            0                       # Number of conflicting loads. (Count)
system.cpu.MemDepUnit__1.conflictingStores            0                       # Number of conflicting stores. (Count)
system.cpu.MemDepUnit__2.insertedLoads              0                       # Number of loads inserted to the mem dependence unit. (Count)
system.cpu.MemDepUnit__2.insertedStores             0                       # Number of stores inserted to the mem dependence unit. (Count)
system.cpu.MemDepUnit__2.conflictingLoads            0                       # Number of conflicting loads. (Count)
system.cpu.MemDepUnit__2.conflictingStores            0                       # Number of conflicting stores. (Count)
system.cpu.MemDepUnit__3.insertedLoads              0                       # Number of loads inserted to the mem dependence unit. (Count)
system.cpu.MemDepUnit__3.insertedStores             0                       # Number of stores inserted to the mem dependence unit. (Count)
system.cpu.MemDepUnit__3.conflictingLoads            0                       # Number of conflicting loads. (Count)
system.cpu.MemDepUnit__3.conflictingStores            0                       # Number of conflicting stores. (Count)
system.cpu.branchPred.lookups                 3021135                       # Number of BP lookups (Count)
system.cpu.branchPred.condPredicted           3000107                       # Number of conditional branches predicted (Count)
system.cpu.branchPred.condIncorrect            387978                       # Number of conditional branches incorrect (Count)
system.cpu.branchPred.BTBLookups              2291870                       # Number of BTB lookups (Count)
system.cpu.branchPred.BTBHits                 2291538                       # Number of BTB hits (Count)
system.cpu.branchPred.BTBHitRatio            0.999855                       # BTB Hit Ratio (Ratio)
system.cpu.branchPred.RASUsed                    5331                       # Number of times the RAS was used to get a target. (Count)
system.cpu.branchPred.RASIncorrect                  0                       # Number of incorrect RAS predictions. (Count)
system.cpu.branchPred.indirectLookups             208                       # Number of indirect predictor lookups. (Count)
system.cpu.branchPred.indirectHits                105                       # Number of indirect target hits. (Count)
system.cpu.branchPred.indirectMisses              103                       # Number of indirect misses. (Count)
system.cpu.branchPred.indirectMispredicted           40                       # Number of mispredicted indirect branches. (Count)
system.cpu.commit.commitSquashedInsts         3164358                       # The number of squashed insts skipped by commit (Count)
system.cpu.commit.commitNonSpecStalls              10                       # The number of times commit has been forced to stall to communicate backwards (Count)
system.cpu.commit.branchMispredicts            387949                       # The number of times a branch was mispredicted (Count)
system.cpu.commit.numCommittedDist::samples     34055439                       # Number of insts commited each cycle (Count)
system.cpu.commit.numCommittedDist::mean     1.202347                       # Number of insts commited each cycle (Count)
system.cpu.commit.numCommittedDist::stdev     0.834889                       # Number of insts commited each cycle (Count)
system.cpu.commit.numCommittedDist::underflows            0      0.00%      0.00% # Number of insts commited each cycle (Count)
system.cpu.commit.numCommittedDist::0         9120661     26.78%     26.78% # Number of insts commited each cycle (Count)
system.cpu.commit.numCommittedDist::1         8923094     26.20%     52.98% # Number of insts commited each cycle (Count)
system.cpu.commit.numCommittedDist::2        16011684     47.02%    100.00% # Number of insts commited each cycle (Count)
system.cpu.commit.numCommittedDist::overflows            0      0.00%    100.00% # Number of insts commited each cycle (Count)
system.cpu.commit.numCommittedDist::min_value            0                       # Number of insts commited each cycle (Count)
system.cpu.commit.numCommittedDist::max_value            2                       # Number of insts commited each cycle (Count)
system.cpu.commit.numCommittedDist::total     34055439                       # Number of insts commited each cycle (Count)
system.cpu.commit.instsCommitted             26871651                       # Number of instructions committed (Count)
system.cpu.commit.opsCommitted               40946462                       # Number of ops (including micro ops) committed (Count)
system.cpu.commit.memRefs                    16555533                       # Number of memory references committed (Count)
system.cpu.commit.loads                      13339506                       # Number of loads committed (Count)
system.cpu.commit.amos                              0                       # Number of atomic instructions committed (Count)
system.cpu.commit.membars                           0                       # Number of memory barriers committed (Count)
system.cpu.commit.branches                    2557251                       # Number of branches committed (Count)
system.cpu.commit.vectorInstructions                0                       # Number of committed Vector instructions. (Count)
system.cpu.commit.floating                        616                       # Number of committed floating point instructions. (Count)
system.cpu.commit.integer                    40945640                       # Number of committed integer instructions. (Count)
system.cpu.commit.functionCalls                  5222                       # Number of function calls committed. (Count)
system.cpu.commit.committedInstType_0::No_OpClass          296      0.00%      0.00% # Class of committed instruction (Count)
system.cpu.commit.committedInstType_0::IntAlu     24375094     59.53%     59.53% # Class of committed instruction (Count)
system.cpu.commit.committedInstType_0::IntMult        15050      0.04%     59.57% # Class of committed instruction (Count)
system.cpu.commit.committedInstType_0::IntDiv           85      0.00%     59.57% # Class of committed instruction (Count)
system.cpu.commit.committedInstType_0::FloatAdd           28      0.00%     59.57% # Class of committed instruction (Count)
system.cpu.commit.committedInstType_0::FloatCmp            0      0.00%     59.57% # Class of committed instruction (Count)
system.cpu.commit.committedInstType_0::FloatCvt           16      0.00%     59.57% # Class of committed instruction (Count)
system.cpu.commit.committedInstType_0::FloatMult            0      0.00%     59.57% # Class of committed instruction (Count)
system.cpu.commit.committedInstType_0::FloatMultAcc            0      0.00%     59.57% # Class of committed instruction (Count)
system.cpu.commit.committedInstType_0::FloatDiv            0      0.00%     59.57% # Class of committed instruction (Count)
system.cpu.commit.committedInstType_0::FloatMisc            0      0.00%     59.57% # Class of committed instruction (Count)
system.cpu.commit.committedInstType_0::FloatSqrt            0      0.00%     59.57% # Class of committed instruction (Count)
system.cpu.commit.committedInstType_0::SimdAdd            4      0.00%     59.57% # Class of committed instruction (Count)
system.cpu.commit.committedInstType_0::SimdAddAcc            0      0.00%     59.57% # Class of committed instruction (Count)
system.cpu.commit.committedInstType_0::SimdAlu           84      0.00%     59.57% # Class of committed instruction (Count)
system.cpu.commit.committedInstType_0::SimdCmp            0      0.00%     59.57% # Class of committed instruction (Count)
system.cpu.commit.committedInstType_0::SimdCvt           88      0.00%     59.57% # Class of committed instruction (Count)
system.cpu.commit.committedInstType_0::SimdMisc          184      0.00%     59.57% # Class of committed instruction (Count)
system.cpu.commit.committedInstType_0::SimdMult            0      0.00%     59.57% # Class of committed instruction (Count)
system.cpu.commit.committedInstType_0::SimdMultAcc            0      0.00%     59.57% # Class of committed instruction (Count)
system.cpu.commit.committedInstType_0::SimdShift            0      0.00%     59.57% # Class of committed instruction (Count)
system.cpu.commit.committedInstType_0::SimdShiftAcc            0      0.00%     59.57% # Class of committed instruction (Count)
system.cpu.commit.committedInstType_0::SimdDiv            0      0.00%     59.57% # Class of committed instruction (Count)
system.cpu.commit.committedInstType_0::SimdSqrt            0      0.00%     59.57% # Class of committed instruction (Count)
system.cpu.commit.committedInstType_0::SimdFloatAdd            0      0.00%     59.57% # Class of committed instruction (Count)
system.cpu.commit.committedInstType_0::SimdFloatAlu            0      0.00%     59.57% # Class of committed instruction (Count)
system.cpu.commit.committedInstType_0::SimdFloatCmp            0      0.00%     59.57% # Class of committed instruction (Count)
system.cpu.commit.committedInstType_0::SimdFloatCvt            0      0.00%     59.57% # Class of committed instruction (Count)
system.cpu.commit.committedInstType_0::SimdFloatDiv            0      0.00%     59.57% # Class of committed instruction (Count)
system.cpu.commit.committedInstType_0::SimdFloatMisc            0      0.00%     59.57% # Class of committed instruction (Count)
system.cpu.commit.committedInstType_0::SimdFloatMult            0      0.00%     59.57% # Class of committed instruction (Count)
system.cpu.commit.committedInstType_0::SimdFloatMultAcc            0      0.00%     59.57% # Class of committed instruction (Count)
system.cpu.commit.committedInstType_0::SimdFloatSqrt            0      0.00%     59.57% # Class of committed instruction (Count)
system.cpu.commit.committedInstType_0::SimdReduceAdd            0      0.00%     59.57% # Class of committed instruction (Count)
system.cpu.commit.committedInstType_0::SimdReduceAlu            0      0.00%     59.57% # Class of committed instruction (Count)
system.cpu.commit.committedInstType_0::SimdReduceCmp            0      0.00%     59.57% # Class of committed instruction (Count)
system.cpu.commit.committedInstType_0::SimdFloatReduceAdd            0      0.00%     59.57% # Class of committed instruction (Count)
system.cpu.commit.committedInstType_0::SimdFloatReduceCmp            0      0.00%     59.57% # Class of committed instruction (Count)
system.cpu.commit.committedInstType_0::SimdAes            0      0.00%     59.57% # Class of committed instruction (Count)
system.cpu.commit.committedInstType_0::SimdAesMix            0      0.00%     59.57% # Class of committed instruction (Count)
system.cpu.commit.committedInstType_0::SimdSha1Hash            0      0.00%     59.57% # Class of committed instruction (Count)
system.cpu.commit.committedInstType_0::SimdSha1Hash2            0      0.00%     59.57% # Class of committed instruction (Count)
system.cpu.commit.committedInstType_0::SimdSha256Hash            0      0.00%     59.57% # Class of committed instruction (Count)
system.cpu.commit.committedInstType_0::SimdSha256Hash2            0      0.00%     59.57% # Class of committed instruction (Count)
system.cpu.commit.committedInstType_0::SimdShaSigma2            0      0.00%     59.57% # Class of committed instruction (Count)
system.cpu.commit.committedInstType_0::SimdShaSigma3            0      0.00%     59.57% # Class of committed instruction (Count)
system.cpu.commit.committedInstType_0::SimdPredAlu            0      0.00%     59.57% # Class of committed instruction (Count)
system.cpu.commit.committedInstType_0::MemRead     13339406     32.58%     92.15% # Class of committed instruction (Count)
system.cpu.commit.committedInstType_0::MemWrite      3215975      7.85%    100.00% # Class of committed instruction (Count)
system.cpu.commit.committedInstType_0::FloatMemRead          100      0.00%    100.00% # Class of committed instruction (Count)
system.cpu.commit.committedInstType_0::FloatMemWrite           52      0.00%    100.00% # Class of committed instruction (Count)
system.cpu.commit.committedInstType_0::IprAccess            0      0.00%    100.00% # Class of committed instruction (Count)
system.cpu.commit.committedInstType_0::InstPrefetch            0      0.00%    100.00% # Class of committed instruction (Count)
system.cpu.commit.committedInstType_0::total     40946462                       # Class of committed instruction (Count)
system.cpu.commit.commitEligibleSamples      16011684                       # number cycles where commit BW limit reached (Cycle)
system.cpu.dcache.demandHits::cpu.data       14799073                       # number of demand (read+write) hits (Count)
system.cpu.dcache.demandHits::total          14799073                       # number of demand (read+write) hits (Count)
system.cpu.dcache.overallHits::cpu.data      14799073                       # number of overall hits (Count)
system.cpu.dcache.overallHits::total         14799073                       # number of overall hits (Count)
system.cpu.dcache.demandMisses::cpu.data         2756                       # number of demand (read+write) misses (Count)
system.cpu.dcache.demandMisses::total            2756                       # number of demand (read+write) misses (Count)
system.cpu.dcache.overallMisses::cpu.data         2756                       # number of overall misses (Count)
system.cpu.dcache.overallMisses::total           2756                       # number of overall misses (Count)
system.cpu.dcache.demandMissLatency::cpu.data    154550000                       # number of demand (read+write) miss ticks (Tick)
system.cpu.dcache.demandMissLatency::total    154550000                       # number of demand (read+write) miss ticks (Tick)
system.cpu.dcache.overallMissLatency::cpu.data    154550000                       # number of overall miss ticks (Tick)
system.cpu.dcache.overallMissLatency::total    154550000                       # number of overall miss ticks (Tick)
system.cpu.dcache.demandAccesses::cpu.data     14801829                       # number of demand (read+write) accesses (Count)
system.cpu.dcache.demandAccesses::total      14801829                       # number of demand (read+write) accesses (Count)
system.cpu.dcache.overallAccesses::cpu.data     14801829                       # number of overall (read+write) accesses (Count)
system.cpu.dcache.overallAccesses::total     14801829                       # number of overall (read+write) accesses (Count)
system.cpu.dcache.demandMissRate::cpu.data     0.000186                       # miss rate for demand accesses (Ratio)
system.cpu.dcache.demandMissRate::total      0.000186                       # miss rate for demand accesses (Ratio)
system.cpu.dcache.overallMissRate::cpu.data     0.000186                       # miss rate for overall accesses (Ratio)
system.cpu.dcache.overallMissRate::total     0.000186                       # miss rate for overall accesses (Ratio)
system.cpu.dcache.demandAvgMissLatency::cpu.data 56077.648766                       # average overall miss latency in ticks ((Tick/Count))
system.cpu.dcache.demandAvgMissLatency::total 56077.648766                       # average overall miss latency in ticks ((Tick/Count))
system.cpu.dcache.overallAvgMissLatency::cpu.data 56077.648766                       # average overall miss latency ((Tick/Count))
system.cpu.dcache.overallAvgMissLatency::total 56077.648766                       # average overall miss latency ((Tick/Count))
system.cpu.dcache.blockedCycles::no_mshrs           19                       # number of cycles access was blocked (Cycle)
system.cpu.dcache.blockedCycles::no_targets            0                       # number of cycles access was blocked (Cycle)
system.cpu.dcache.blockedCauses::no_mshrs            1                       # number of times access was blocked (Count)
system.cpu.dcache.blockedCauses::no_targets            0                       # number of times access was blocked (Count)
system.cpu.dcache.avgBlocked::no_mshrs             19                       # average number of cycles each access was blocked ((Cycle/Count))
system.cpu.dcache.avgBlocked::no_targets          nan                       # average number of cycles each access was blocked ((Cycle/Count))
system.cpu.dcache.writebacks::writebacks          425                       # number of writebacks (Count)
system.cpu.dcache.writebacks::total               425                       # number of writebacks (Count)
system.cpu.dcache.demandMshrHits::cpu.data          898                       # number of demand (read+write) MSHR hits (Count)
system.cpu.dcache.demandMshrHits::total           898                       # number of demand (read+write) MSHR hits (Count)
system.cpu.dcache.overallMshrHits::cpu.data          898                       # number of overall MSHR hits (Count)
system.cpu.dcache.overallMshrHits::total          898                       # number of overall MSHR hits (Count)
system.cpu.dcache.demandMshrMisses::cpu.data         1858                       # number of demand (read+write) MSHR misses (Count)
system.cpu.dcache.demandMshrMisses::total         1858                       # number of demand (read+write) MSHR misses (Count)
system.cpu.dcache.overallMshrMisses::cpu.data         1858                       # number of overall MSHR misses (Count)
system.cpu.dcache.overallMshrMisses::total         1858                       # number of overall MSHR misses (Count)
system.cpu.dcache.demandMshrMissLatency::cpu.data    102761000                       # number of demand (read+write) MSHR miss ticks (Tick)
system.cpu.dcache.demandMshrMissLatency::total    102761000                       # number of demand (read+write) MSHR miss ticks (Tick)
system.cpu.dcache.overallMshrMissLatency::cpu.data    102761000                       # number of overall MSHR miss ticks (Tick)
system.cpu.dcache.overallMshrMissLatency::total    102761000                       # number of overall MSHR miss ticks (Tick)
system.cpu.dcache.demandMshrMissRate::cpu.data     0.000126                       # mshr miss ratio for demand accesses (Ratio)
system.cpu.dcache.demandMshrMissRate::total     0.000126                       # mshr miss ratio for demand accesses (Ratio)
system.cpu.dcache.overallMshrMissRate::cpu.data     0.000126                       # mshr miss ratio for overall accesses (Ratio)
system.cpu.dcache.overallMshrMissRate::total     0.000126                       # mshr miss ratio for overall accesses (Ratio)
system.cpu.dcache.demandAvgMshrMissLatency::cpu.data 55307.319699                       # average overall mshr miss latency ((Tick/Count))
system.cpu.dcache.demandAvgMshrMissLatency::total 55307.319699                       # average overall mshr miss latency ((Tick/Count))
system.cpu.dcache.overallAvgMshrMissLatency::cpu.data 55307.319699                       # average overall mshr miss latency ((Tick/Count))
system.cpu.dcache.overallAvgMshrMissLatency::total 55307.319699                       # average overall mshr miss latency ((Tick/Count))
system.cpu.dcache.replacements                   1858                       # number of replacements (Count)
system.cpu.dcache.ReadReq.hits::cpu.data     11583386                       # number of ReadReq hits (Count)
system.cpu.dcache.ReadReq.hits::total        11583386                       # number of ReadReq hits (Count)
system.cpu.dcache.ReadReq.misses::cpu.data         2416                       # number of ReadReq misses (Count)
system.cpu.dcache.ReadReq.misses::total          2416                       # number of ReadReq misses (Count)
system.cpu.dcache.ReadReq.missLatency::cpu.data    141877500                       # number of ReadReq miss ticks (Tick)
system.cpu.dcache.ReadReq.missLatency::total    141877500                       # number of ReadReq miss ticks (Tick)
system.cpu.dcache.ReadReq.accesses::cpu.data     11585802                       # number of ReadReq accesses(hits+misses) (Count)
system.cpu.dcache.ReadReq.accesses::total     11585802                       # number of ReadReq accesses(hits+misses) (Count)
system.cpu.dcache.ReadReq.missRate::cpu.data     0.000209                       # miss rate for ReadReq accesses (Ratio)
system.cpu.dcache.ReadReq.missRate::total     0.000209                       # miss rate for ReadReq accesses (Ratio)
system.cpu.dcache.ReadReq.avgMissLatency::cpu.data 58724.130795                       # average ReadReq miss latency ((Tick/Count))
system.cpu.dcache.ReadReq.avgMissLatency::total 58724.130795                       # average ReadReq miss latency ((Tick/Count))
system.cpu.dcache.ReadReq.mshrHits::cpu.data          898                       # number of ReadReq MSHR hits (Count)
system.cpu.dcache.ReadReq.mshrHits::total          898                       # number of ReadReq MSHR hits (Count)
system.cpu.dcache.ReadReq.mshrMisses::cpu.data         1518                       # number of ReadReq MSHR misses (Count)
system.cpu.dcache.ReadReq.mshrMisses::total         1518                       # number of ReadReq MSHR misses (Count)
system.cpu.dcache.ReadReq.mshrMissLatency::cpu.data     90428500                       # number of ReadReq MSHR miss ticks (Tick)
system.cpu.dcache.ReadReq.mshrMissLatency::total     90428500                       # number of ReadReq MSHR miss ticks (Tick)
system.cpu.dcache.ReadReq.mshrMissRate::cpu.data     0.000131                       # mshr miss rate for ReadReq accesses (Ratio)
system.cpu.dcache.ReadReq.mshrMissRate::total     0.000131                       # mshr miss rate for ReadReq accesses (Ratio)
system.cpu.dcache.ReadReq.avgMshrMissLatency::cpu.data 59570.816864                       # average ReadReq mshr miss latency ((Tick/Count))
system.cpu.dcache.ReadReq.avgMshrMissLatency::total 59570.816864                       # average ReadReq mshr miss latency ((Tick/Count))
system.cpu.dcache.WriteReq.hits::cpu.data      3215687                       # number of WriteReq hits (Count)
system.cpu.dcache.WriteReq.hits::total        3215687                       # number of WriteReq hits (Count)
system.cpu.dcache.WriteReq.misses::cpu.data          340                       # number of WriteReq misses (Count)
system.cpu.dcache.WriteReq.misses::total          340                       # number of WriteReq misses (Count)
system.cpu.dcache.WriteReq.missLatency::cpu.data     12672500                       # number of WriteReq miss ticks (Tick)
system.cpu.dcache.WriteReq.missLatency::total     12672500                       # number of WriteReq miss ticks (Tick)
system.cpu.dcache.WriteReq.accesses::cpu.data      3216027                       # number of WriteReq accesses(hits+misses) (Count)
system.cpu.dcache.WriteReq.accesses::total      3216027                       # number of WriteReq accesses(hits+misses) (Count)
system.cpu.dcache.WriteReq.missRate::cpu.data     0.000106                       # miss rate for WriteReq accesses (Ratio)
system.cpu.dcache.WriteReq.missRate::total     0.000106                       # miss rate for WriteReq accesses (Ratio)
system.cpu.dcache.WriteReq.avgMissLatency::cpu.data 37272.058824                       # average WriteReq miss latency ((Tick/Count))
system.cpu.dcache.WriteReq.avgMissLatency::total 37272.058824                       # average WriteReq miss latency ((Tick/Count))
system.cpu.dcache.WriteReq.mshrMisses::cpu.data          340                       # number of WriteReq MSHR misses (Count)
system.cpu.dcache.WriteReq.mshrMisses::total          340                       # number of WriteReq MSHR misses (Count)
system.cpu.dcache.WriteReq.mshrMissLatency::cpu.data     12332500                       # number of WriteReq MSHR miss ticks (Tick)
system.cpu.dcache.WriteReq.mshrMissLatency::total     12332500                       # number of WriteReq MSHR miss ticks (Tick)
system.cpu.dcache.WriteReq.mshrMissRate::cpu.data     0.000106                       # mshr miss rate for WriteReq accesses (Ratio)
system.cpu.dcache.WriteReq.mshrMissRate::total     0.000106                       # mshr miss rate for WriteReq accesses (Ratio)
system.cpu.dcache.WriteReq.avgMshrMissLatency::cpu.data 36272.058824                       # average WriteReq mshr miss latency ((Tick/Count))
system.cpu.dcache.WriteReq.avgMshrMissLatency::total 36272.058824                       # average WriteReq mshr miss latency ((Tick/Count))
system.cpu.dcache.power_state.pwrStateResidencyTicks::UNDEFINED  17545772500                       # Cumulative time (in ticks) in various power states (Tick)
system.cpu.dcache.tags.tagsInUse                   64                       # Average ticks per tags in use ((Tick/Count))
system.cpu.dcache.tags.totalRefs             12593851                       # Total number of references to valid blocks. (Count)
system.cpu.dcache.tags.sampledRefs               1858                       # Sample count of references to valid blocks. (Count)
system.cpu.dcache.tags.avgRefs            6778.175996                       # Average number of references to valid blocks. ((Count/Count))
system.cpu.dcache.tags.warmupTick            11148000                       # The tick when the warmup percentage was hit. (Tick)
system.cpu.dcache.tags.occupancies::cpu.data           64                       # Average occupied blocks per tick, per requestor ((Count/Tick))
system.cpu.dcache.tags.avgOccs::cpu.data            1                       # Average percentage of cache occupancy ((Ratio/Tick))
system.cpu.dcache.tags.avgOccs::total               1                       # Average percentage of cache occupancy ((Ratio/Tick))
system.cpu.dcache.tags.occupanciesTaskId::1024           64                       # Occupied blocks per task id (Count)
system.cpu.dcache.tags.ageTaskId_1024::0           24                       # Occupied blocks per task id, per block age (Count)
system.cpu.dcache.tags.ageTaskId_1024::4           40                       # Occupied blocks per task id, per block age (Count)
system.cpu.dcache.tags.ratioOccsTaskId::1024            1                       # Ratio of occupied blocks and all blocks, per task id (Ratio)
system.cpu.dcache.tags.tagAccesses           29605516                       # Number of tag accesses (Count)
system.cpu.dcache.tags.dataAccesses          29605516                       # Number of data accesses (Count)
system.cpu.dcache.tags.power_state.pwrStateResidencyTicks::UNDEFINED  17545772500                       # Cumulative time (in ticks) in various power states (Tick)
system.cpu.decode.idleCycles                  3497352                       # Number of cycles decode is idle (Cycle)
system.cpu.decode.blockedCycles               7696265                       # Number of cycles decode is blocked (Cycle)
system.cpu.decode.runCycles                  18109526                       # Number of cycles decode is running (Cycle)
system.cpu.decode.unblockCycles               4910771                       # Number of cycles decode is unblocking (Cycle)
system.cpu.decode.squashCycles                 388055                       # Number of cycles decode is squashing (Cycle)
system.cpu.decode.branchResolved              2033040                       # Number of times decode resolved a branch (Count)
system.cpu.decode.branchMispred                   122                       # Number of times decode detected a branch misprediction (Count)
system.cpu.decode.decodedInsts               45416505                       # Number of instructions handled by decode (Count)
system.cpu.decode.squashedInsts                   177                       # Number of squashed instructions handled by decode (Count)
system.cpu.fetch.icacheStallCycles            4998521                       # Number of cycles fetch is stalled on an Icache miss (Cycle)
system.cpu.fetch.insts                       33879987                       # Number of instructions fetch has processed (Count)
system.cpu.fetch.branches                     3021135                       # Number of branches that fetch encountered (Count)
system.cpu.fetch.predictedBranches            2296974                       # Number of branches that fetch has predicted taken (Count)
system.cpu.fetch.cycles                      29214178                       # Number of cycles fetch has run and was not squashing or blocked (Cycle)
system.cpu.fetch.squashCycles                  776354                       # Number of cycles fetch has spent squashing (Cycle)
system.cpu.fetch.miscStallCycles                  110                       # Number of cycles fetch has spent waiting on interrupts, or bad addresses, or out of MSHRs (Cycle)
system.cpu.fetch.pendingTrapStallCycles           983                       # Number of stall cycles due to pending traps (Cycle)
system.cpu.fetch.cacheLines                   4861951                       # Number of cache lines fetched (Count)
system.cpu.fetch.icacheSquashes                 71568                       # Number of outstanding Icache misses that were squashed (Count)
system.cpu.fetch.nisnDist::samples           34601969                       # Number of instructions fetched each cycle (Total) (Count)
system.cpu.fetch.nisnDist::mean              1.488508                       # Number of instructions fetched each cycle (Total) (Count)
system.cpu.fetch.nisnDist::stdev             0.808070                       # Number of instructions fetched each cycle (Total) (Count)
system.cpu.fetch.nisnDist::underflows               0      0.00%      0.00% # Number of instructions fetched each cycle (Total) (Count)
system.cpu.fetch.nisnDist::0                  6974184     20.16%     20.16% # Number of instructions fetched each cycle (Total) (Count)
system.cpu.fetch.nisnDist::1                  3750262     10.84%     30.99% # Number of instructions fetched each cycle (Total) (Count)
system.cpu.fetch.nisnDist::2                 23877523     69.01%    100.00% # Number of instructions fetched each cycle (Total) (Count)
system.cpu.fetch.nisnDist::overflows                0      0.00%    100.00% # Number of instructions fetched each cycle (Total) (Count)
system.cpu.fetch.nisnDist::min_value                0                       # Number of instructions fetched each cycle (Total) (Count)
system.cpu.fetch.nisnDist::max_value                2                       # Number of instructions fetched each cycle (Total) (Count)
system.cpu.fetch.nisnDist::total             34601969                       # Number of instructions fetched each cycle (Total) (Count)
system.cpu.fetch.branchRate                  0.087231                       # Number of branch fetches per cycle (Ratio)
system.cpu.fetch.rate                        0.978238                       # Number of inst fetches per cycle ((Count/Cycle))
system.cpu.icache.demandHits::cpu.inst        4860945                       # number of demand (read+write) hits (Count)
system.cpu.icache.demandHits::total           4860945                       # number of demand (read+write) hits (Count)
system.cpu.icache.overallHits::cpu.inst       4860945                       # number of overall hits (Count)
system.cpu.icache.overallHits::total          4860945                       # number of overall hits (Count)
system.cpu.icache.demandMisses::cpu.inst         1006                       # number of demand (read+write) misses (Count)
system.cpu.icache.demandMisses::total            1006                       # number of demand (read+write) misses (Count)
system.cpu.icache.overallMisses::cpu.inst         1006                       # number of overall misses (Count)
system.cpu.icache.overallMisses::total           1006                       # number of overall misses (Count)
system.cpu.icache.demandMissLatency::cpu.inst     35083000                       # number of demand (read+write) miss ticks (Tick)
system.cpu.icache.demandMissLatency::total     35083000                       # number of demand (read+write) miss ticks (Tick)
system.cpu.icache.overallMissLatency::cpu.inst     35083000                       # number of overall miss ticks (Tick)
system.cpu.icache.overallMissLatency::total     35083000                       # number of overall miss ticks (Tick)
system.cpu.icache.demandAccesses::cpu.inst      4861951                       # number of demand (read+write) accesses (Count)
system.cpu.icache.demandAccesses::total       4861951                       # number of demand (read+write) accesses (Count)
system.cpu.icache.overallAccesses::cpu.inst      4861951                       # number of overall (read+write) accesses (Count)
system.cpu.icache.overallAccesses::total      4861951                       # number of overall (read+write) accesses (Count)
system.cpu.icache.demandMissRate::cpu.inst     0.000207                       # miss rate for demand accesses (Ratio)
system.cpu.icache.demandMissRate::total      0.000207                       # miss rate for demand accesses (Ratio)
system.cpu.icache.overallMissRate::cpu.inst     0.000207                       # miss rate for overall accesses (Ratio)
system.cpu.icache.overallMissRate::total     0.000207                       # miss rate for overall accesses (Ratio)
system.cpu.icache.demandAvgMissLatency::cpu.inst 34873.757455                       # average overall miss latency in ticks ((Tick/Count))
system.cpu.icache.demandAvgMissLatency::total 34873.757455                       # average overall miss latency in ticks ((Tick/Count))
system.cpu.icache.overallAvgMissLatency::cpu.inst 34873.757455                       # average overall miss latency ((Tick/Count))
system.cpu.icache.overallAvgMissLatency::total 34873.757455                       # average overall miss latency ((Tick/Count))
system.cpu.icache.blockedCycles::no_mshrs            0                       # number of cycles access was blocked (Cycle)
system.cpu.icache.blockedCycles::no_targets            0                       # number of cycles access was blocked (Cycle)
system.cpu.icache.blockedCauses::no_mshrs            0                       # number of times access was blocked (Count)
system.cpu.icache.blockedCauses::no_targets            0                       # number of times access was blocked (Count)
system.cpu.icache.avgBlocked::no_mshrs            nan                       # average number of cycles each access was blocked ((Cycle/Count))
system.cpu.icache.avgBlocked::no_targets          nan                       # average number of cycles each access was blocked ((Cycle/Count))
system.cpu.icache.demandMshrHits::cpu.inst           82                       # number of demand (read+write) MSHR hits (Count)
system.cpu.icache.demandMshrHits::total            82                       # number of demand (read+write) MSHR hits (Count)
system.cpu.icache.overallMshrHits::cpu.inst           82                       # number of overall MSHR hits (Count)
system.cpu.icache.overallMshrHits::total           82                       # number of overall MSHR hits (Count)
system.cpu.icache.demandMshrMisses::cpu.inst          924                       # number of demand (read+write) MSHR misses (Count)
system.cpu.icache.demandMshrMisses::total          924                       # number of demand (read+write) MSHR misses (Count)
system.cpu.icache.overallMshrMisses::cpu.inst          924                       # number of overall MSHR misses (Count)
system.cpu.icache.overallMshrMisses::total          924                       # number of overall MSHR misses (Count)
system.cpu.icache.demandMshrMissLatency::cpu.inst     31417000                       # number of demand (read+write) MSHR miss ticks (Tick)
system.cpu.icache.demandMshrMissLatency::total     31417000                       # number of demand (read+write) MSHR miss ticks (Tick)
system.cpu.icache.overallMshrMissLatency::cpu.inst     31417000                       # number of overall MSHR miss ticks (Tick)
system.cpu.icache.overallMshrMissLatency::total     31417000                       # number of overall MSHR miss ticks (Tick)
system.cpu.icache.demandMshrMissRate::cpu.inst     0.000190                       # mshr miss ratio for demand accesses (Ratio)
system.cpu.icache.demandMshrMissRate::total     0.000190                       # mshr miss ratio for demand accesses (Ratio)
system.cpu.icache.overallMshrMissRate::cpu.inst     0.000190                       # mshr miss ratio for overall accesses (Ratio)
system.cpu.icache.overallMshrMissRate::total     0.000190                       # mshr miss ratio for overall accesses (Ratio)
system.cpu.icache.demandAvgMshrMissLatency::cpu.inst 34001.082251                       # average overall mshr miss latency ((Tick/Count))
system.cpu.icache.demandAvgMshrMissLatency::total 34001.082251                       # average overall mshr miss latency ((Tick/Count))
system.cpu.icache.overallAvgMshrMissLatency::cpu.inst 34001.082251                       # average overall mshr miss latency ((Tick/Count))
system.cpu.icache.overallAvgMshrMissLatency::total 34001.082251                       # average overall mshr miss latency ((Tick/Count))
system.cpu.icache.replacements                    922                       # number of replacements (Count)
system.cpu.icache.ReadReq.hits::cpu.inst      4860945                       # number of ReadReq hits (Count)
system.cpu.icache.ReadReq.hits::total         4860945                       # number of ReadReq hits (Count)
system.cpu.icache.ReadReq.misses::cpu.inst         1006                       # number of ReadReq misses (Count)
system.cpu.icache.ReadReq.misses::total          1006                       # number of ReadReq misses (Count)
system.cpu.icache.ReadReq.missLatency::cpu.inst     35083000                       # number of ReadReq miss ticks (Tick)
system.cpu.icache.ReadReq.missLatency::total     35083000                       # number of ReadReq miss ticks (Tick)
system.cpu.icache.ReadReq.accesses::cpu.inst      4861951                       # number of ReadReq accesses(hits+misses) (Count)
system.cpu.icache.ReadReq.accesses::total      4861951                       # number of ReadReq accesses(hits+misses) (Count)
system.cpu.icache.ReadReq.missRate::cpu.inst     0.000207                       # miss rate for ReadReq accesses (Ratio)
system.cpu.icache.ReadReq.missRate::total     0.000207                       # miss rate for ReadReq accesses (Ratio)
system.cpu.icache.ReadReq.avgMissLatency::cpu.inst 34873.757455                       # average ReadReq miss latency ((Tick/Count))
system.cpu.icache.ReadReq.avgMissLatency::total 34873.757455                       # average ReadReq miss latency ((Tick/Count))
system.cpu.icache.ReadReq.mshrHits::cpu.inst           82                       # number of ReadReq MSHR hits (Count)
system.cpu.icache.ReadReq.mshrHits::total           82                       # number of ReadReq MSHR hits (Count)
system.cpu.icache.ReadReq.mshrMisses::cpu.inst          924                       # number of ReadReq MSHR misses (Count)
system.cpu.icache.ReadReq.mshrMisses::total          924                       # number of ReadReq MSHR misses (Count)
system.cpu.icache.ReadReq.mshrMissLatency::cpu.inst     31417000                       # number of ReadReq MSHR miss ticks (Tick)
system.cpu.icache.ReadReq.mshrMissLatency::total     31417000                       # number of ReadReq MSHR miss ticks (Tick)
system.cpu.icache.ReadReq.mshrMissRate::cpu.inst     0.000190                       # mshr miss rate for ReadReq accesses (Ratio)
system.cpu.icache.ReadReq.mshrMissRate::total     0.000190                       # mshr miss rate for ReadReq accesses (Ratio)
system.cpu.icache.ReadReq.avgMshrMissLatency::cpu.inst 34001.082251                       # average ReadReq mshr miss latency ((Tick/Count))
system.cpu.icache.ReadReq.avgMshrMissLatency::total 34001.082251                       # average ReadReq mshr miss latency ((Tick/Count))
system.cpu.icache.power_state.pwrStateResidencyTicks::UNDEFINED  17545772500                       # Cumulative time (in ticks) in various power states (Tick)
system.cpu.icache.tags.tagsInUse            63.900584                       # Average ticks per tags in use ((Tick/Count))
system.cpu.icache.tags.totalRefs              4848644                       # Total number of references to valid blocks. (Count)
system.cpu.icache.tags.sampledRefs                922                       # Sample count of references to valid blocks. (Count)
system.cpu.icache.tags.avgRefs            5258.832972                       # Average number of references to valid blocks. ((Count/Count))
system.cpu.icache.tags.warmupTick            13629500                       # The tick when the warmup percentage was hit. (Tick)
system.cpu.icache.tags.occupancies::cpu.inst    63.900584                       # Average occupied blocks per tick, per requestor ((Count/Tick))
system.cpu.icache.tags.avgOccs::cpu.inst     0.998447                       # Average percentage of cache occupancy ((Ratio/Tick))
system.cpu.icache.tags.avgOccs::total        0.998447                       # Average percentage of cache occupancy ((Ratio/Tick))
system.cpu.icache.tags.occupanciesTaskId::1024           64                       # Occupied blocks per task id (Count)
system.cpu.icache.tags.ageTaskId_1024::0           39                       # Occupied blocks per task id, per block age (Count)
system.cpu.icache.tags.ageTaskId_1024::4           25                       # Occupied blocks per task id, per block age (Count)
system.cpu.icache.tags.ratioOccsTaskId::1024            1                       # Ratio of occupied blocks and all blocks, per task id (Ratio)
system.cpu.icache.tags.tagAccesses            9724825                       # Number of tag accesses (Count)
system.cpu.icache.tags.dataAccesses           9724825                       # Number of data accesses (Count)
system.cpu.icache.tags.power_state.pwrStateResidencyTicks::UNDEFINED  17545772500                       # Cumulative time (in ticks) in various power states (Tick)
system.cpu.iew.idleCycles                           0                       # Number of cycles IEW is idle (Cycle)
system.cpu.iew.squashCycles                    388055                       # Number of cycles IEW is squashing (Cycle)
system.cpu.iew.blockCycles                     158501                       # Number of cycles IEW is blocking (Cycle)
system.cpu.iew.unblockCycles                      218                       # Number of cycles IEW is unblocking (Cycle)
system.cpu.iew.dispatchedInsts               44111083                       # Number of instructions dispatched to IQ (Count)
system.cpu.iew.dispSquashedInsts               301724                       # Number of squashed instructions skipped by dispatch (Count)
system.cpu.iew.dispLoadInsts                 14582817                       # Number of dispatched load instructions (Count)
system.cpu.iew.dispStoreInsts                 3596343                       # Number of dispatched store instructions (Count)
system.cpu.iew.dispNonSpecInsts                    13                       # Number of dispatched non-speculative instructions (Count)
system.cpu.iew.iqFullEvents                         0                       # Number of times the IQ has become full, causing a stall (Count)
system.cpu.iew.lsqFullEvents                      218                       # Number of times the LSQ has become full, causing a stall (Count)
system.cpu.iew.memOrderViolationEvents             62                       # Number of memory order violations (Count)
system.cpu.iew.predictedTakenIncorrect         194139                       # Number of branches that were predicted taken incorrectly (Count)
system.cpu.iew.predictedNotTakenIncorrect       193833                       # Number of branches that were predicted not taken incorrectly (Count)
system.cpu.iew.branchMispredicts               387972                       # Number of branch mispredicts detected at execute (Count)
system.cpu.iew.instsToCommit                 42605349                       # Cumulative count of insts sent to commit (Count)
system.cpu.iew.writebackCount                42557181                       # Cumulative count of insts written-back (Count)
system.cpu.iew.producerInst                  35281716                       # Number of instructions producing a value (Count)
system.cpu.iew.consumerInst                  37937154                       # Number of instructions consuming a value (Count)
system.cpu.iew.wbRate                        1.228780                       # Insts written-back per cycle ((Count/Cycle))
system.cpu.iew.wbFanout                      0.930004                       # Average fanout of values written-back ((Count/Count))
system.cpu.interrupts.clk_domain.clock           8000                       # Clock period in ticks (Tick)
system.cpu.lsq0.forwLoads                     2582953                       # Number of loads that had data forwarded from stores (Count)
system.cpu.lsq0.squashedLoads                 1243311                       # Number of loads squashed (Count)
system.cpu.lsq0.ignoredResponses                 1464                       # Number of memory responses ignored because the instruction is squashed (Count)
system.cpu.lsq0.memOrderViolation                  62                       # Number of memory ordering violations (Count)
system.cpu.lsq0.squashedStores                 380317                       # Number of stores squashed (Count)
system.cpu.lsq0.rescheduledLoads                    0                       # Number of loads that were rescheduled (Count)
system.cpu.lsq0.blockedByCache                      0                       # Number of times an access to memory failed due to the cache being blocked (Count)
system.cpu.lsq0.loadToUse::samples           13339506                       # Distribution of cycle latency between the first time a load is issued and its completion (Unspecified)
system.cpu.lsq0.loadToUse::mean              2.924506                       # Distribution of cycle latency between the first time a load is issued and its completion (Unspecified)
system.cpu.lsq0.loadToUse::stdev             1.839249                       # Distribution of cycle latency between the first time a load is issued and its completion (Unspecified)
system.cpu.lsq0.loadToUse::0-9               13337282     99.98%     99.98% # Distribution of cycle latency between the first time a load is issued and its completion (Unspecified)
system.cpu.lsq0.loadToUse::10-19                    9      0.00%     99.98% # Distribution of cycle latency between the first time a load is issued and its completion (Unspecified)
system.cpu.lsq0.loadToUse::20-29                  465      0.00%     99.99% # Distribution of cycle latency between the first time a load is issued and its completion (Unspecified)
system.cpu.lsq0.loadToUse::30-39                    1      0.00%     99.99% # Distribution of cycle latency between the first time a load is issued and its completion (Unspecified)
system.cpu.lsq0.loadToUse::50-59                    1      0.00%     99.99% # Distribution of cycle latency between the first time a load is issued and its completion (Unspecified)
system.cpu.lsq0.loadToUse::70-79                   13      0.00%     99.99% # Distribution of cycle latency between the first time a load is issued and its completion (Unspecified)
system.cpu.lsq0.loadToUse::80-89                    3      0.00%     99.99% # Distribution of cycle latency between the first time a load is issued and its completion (Unspecified)
system.cpu.lsq0.loadToUse::90-99                   29      0.00%     99.99% # Distribution of cycle latency between the first time a load is issued and its completion (Unspecified)
system.cpu.lsq0.loadToUse::100-109                 14      0.00%     99.99% # Distribution of cycle latency between the first time a load is issued and its completion (Unspecified)
system.cpu.lsq0.loadToUse::110-119                 29      0.00%     99.99% # Distribution of cycle latency between the first time a load is issued and its completion (Unspecified)
system.cpu.lsq0.loadToUse::120-129                353      0.00%     99.99% # Distribution of cycle latency between the first time a load is issued and its completion (Unspecified)
system.cpu.lsq0.loadToUse::130-139               1047      0.01%    100.00% # Distribution of cycle latency between the first time a load is issued and its completion (Unspecified)
system.cpu.lsq0.loadToUse::140-149                 40      0.00%    100.00% # Distribution of cycle latency between the first time a load is issued and its completion (Unspecified)
system.cpu.lsq0.loadToUse::150-159                 40      0.00%    100.00% # Distribution of cycle latency between the first time a load is issued and its completion (Unspecified)
system.cpu.lsq0.loadToUse::160-169                 97      0.00%    100.00% # Distribution of cycle latency between the first time a load is issued and its completion (Unspecified)
system.cpu.lsq0.loadToUse::170-179                 11      0.00%    100.00% # Distribution of cycle latency between the first time a load is issued and its completion (Unspecified)
system.cpu.lsq0.loadToUse::180-189                  4      0.00%    100.00% # Distribution of cycle latency between the first time a load is issued and its completion (Unspecified)
system.cpu.lsq0.loadToUse::190-199                 26      0.00%    100.00% # Distribution of cycle latency between the first time a load is issued and its completion (Unspecified)
system.cpu.lsq0.loadToUse::200-209                  2      0.00%    100.00% # Distribution of cycle latency between the first time a load is issued and its completion (Unspecified)
system.cpu.lsq0.loadToUse::240-249                  2      0.00%    100.00% # Distribution of cycle latency between the first time a load is issued and its completion (Unspecified)
system.cpu.lsq0.loadToUse::250-259                  2      0.00%    100.00% # Distribution of cycle latency between the first time a load is issued and its completion (Unspecified)
system.cpu.lsq0.loadToUse::260-269                  2      0.00%    100.00% # Distribution of cycle latency between the first time a load is issued and its completion (Unspecified)
system.cpu.lsq0.loadToUse::280-289                  1      0.00%    100.00% # Distribution of cycle latency between the first time a load is issued and its completion (Unspecified)
system.cpu.lsq0.loadToUse::290-299                  1      0.00%    100.00% # Distribution of cycle latency between the first time a load is issued and its completion (Unspecified)
system.cpu.lsq0.loadToUse::overflows               32      0.00%    100.00% # Distribution of cycle latency between the first time a load is issued and its completion (Unspecified)
system.cpu.lsq0.loadToUse::min_value                2                       # Distribution of cycle latency between the first time a load is issued and its completion (Unspecified)
system.cpu.lsq0.loadToUse::max_value              697                       # Distribution of cycle latency between the first time a load is issued and its completion (Unspecified)
system.cpu.lsq0.loadToUse::total             13339506                       # Distribution of cycle latency between the first time a load is issued and its completion (Unspecified)
system.cpu.mmu.dtb.rdAccesses                14168762                       # TLB accesses on read requests (Count)
system.cpu.mmu.dtb.wrAccesses                 3361891                       # TLB accesses on write requests (Count)
system.cpu.mmu.dtb.rdMisses                        33                       # TLB misses on read requests (Count)
system.cpu.mmu.dtb.wrMisses                        10                       # TLB misses on write requests (Count)
system.cpu.mmu.dtb.walker.power_state.pwrStateResidencyTicks::UNDEFINED  17545772500                       # Cumulative time (in ticks) in various power states (Tick)
system.cpu.mmu.itb.rdAccesses                       0                       # TLB accesses on read requests (Count)
system.cpu.mmu.itb.wrAccesses                 4862064                       # TLB accesses on write requests (Count)
system.cpu.mmu.itb.rdMisses                         0                       # TLB misses on read requests (Count)
system.cpu.mmu.itb.wrMisses                       143                       # TLB misses on write requests (Count)
system.cpu.mmu.itb.walker.power_state.pwrStateResidencyTicks::UNDEFINED  17545772500                       # Cumulative time (in ticks) in various power states (Tick)
system.cpu.power_state.pwrStateResidencyTicks::ON  17545772500                       # Cumulative time (in ticks) in various power states (Tick)
system.cpu.rename.squashCycles                 388055                       # Number of cycles rename is squashing (Cycle)
system.cpu.rename.idleCycles                  6032548                       # Number of cycles rename is idle (Cycle)
system.cpu.rename.blockCycles                 3314948                       # Number of cycles rename is blocking (Cycle)
system.cpu.rename.serializeStallCycles            128                       # count of cycles rename stalled for serializing inst (Cycle)
system.cpu.rename.runCycles                  19155946                       # Number of cycles rename is running (Cycle)
system.cpu.rename.unblockCycles               5710344                       # Number of cycles rename is unblocking (Cycle)
system.cpu.rename.renamedInsts               44766006                       # Number of instructions processed by rename (Count)
system.cpu.rename.ROBFullEvents               2667834                       # Number of times rename has blocked due to ROB full (Count)
system.cpu.rename.SQFullEvents                   5137                       # Number of times rename has blocked due to SQ full (Count)
system.cpu.rename.renamedOperands            73363496                       # Number of destination operands rename has renamed (Count)
system.cpu.rename.lookups                   138485096                       # Number of register rename lookups that rename has made (Count)
system.cpu.rename.intLookups                 47018765                       # Number of integer rename lookups (Count)
system.cpu.rename.fpLookups                       986                       # Number of floating rename lookups (Count)
system.cpu.rename.committedMaps              67082006                       # Number of HB maps that are committed (Count)
system.cpu.rename.undoneMaps                  6281487                       # Number of HB maps that are undone due to squashing (Count)
system.cpu.rename.serializing                       9                       # count of serializing insts renamed (Count)
system.cpu.rename.tempSerializing                   9                       # count of temporary serializing insts renamed (Count)
system.cpu.rename.skidInsts                   8954261                       # count of insts added to the skid buffer (Count)
system.cpu.rob.reads                         62154003                       # The number of ROB reads (Count)
[...]
system.mem_ctrls.dram.numReads::cpu.inst          401                       # Number of read requests responded to by this memory (Count)
system.mem_ctrls.dram.numReads::cpu.data         1385                       # Number of read requests responded to by this memory (Count)
system.mem_ctrls.dram.numReads::total            1786                       # Number of read requests responded to by this memory (Count)
system.mem_ctrls.dram.numWrites::writebacks          121                       # Number of write requests responded to by this memory (Count)
system.mem_ctrls.dram.numWrites::total            121                       # Number of write requests responded to by this memory (Count)
system.mem_ctrls.dram.bwRead::cpu.inst        1481303                       # Total read bandwidth from this memory ((Byte/Second))
system.mem_ctrls.dram.bwRead::cpu.data        5116222                       # Total read bandwidth from this memory ((Byte/Second))
system.mem_ctrls.dram.bwRead::total           6597525                       # Total read bandwidth from this memory ((Byte/Second))
system.mem_ctrls.dram.bwInstRead::cpu.inst      1481303                       # Instruction read bandwidth from this memory ((Byte/Second))
system.mem_ctrls.dram.bwInstRead::total       1481303                       # Instruction read bandwidth from this memory ((Byte/Second))
system.mem_ctrls.dram.bwWrite::writebacks       446977                       # Write bandwidth from this memory ((Byte/Second))
system.mem_ctrls.dram.bwWrite::total           446977                       # Write bandwidth from this memory ((Byte/Second))
system.mem_ctrls.dram.bwTotal::writebacks       446977                       # Total bandwidth to/from this memory ((Byte/Second))
system.mem_ctrls.dram.bwTotal::cpu.inst       1481303                       # Total bandwidth to/from this memory ((Byte/Second))
system.mem_ctrls.dram.bwTotal::cpu.data       5116222                       # Total bandwidth to/from this memory ((Byte/Second))
system.mem_ctrls.dram.bwTotal::total          7044502                       # Total bandwidth to/from this memory ((Byte/Second))
system.mem_ctrls.dram.readBursts                 1766                       # Number of DRAM read bursts (Count)
system.mem_ctrls.dram.writeBursts                 121                       # Number of DRAM write bursts (Count)
system.mem_ctrls.dram.perBankRdBursts::0          180                       # Per bank write bursts (Count)
system.mem_ctrls.dram.perBankRdBursts::1          169                       # Per bank write bursts (Count)
system.mem_ctrls.dram.perBankRdBursts::2          102                       # Per bank write bursts (Count)
system.mem_ctrls.dram.perBankRdBursts::3          152                       # Per bank write bursts (Count)
system.mem_ctrls.dram.perBankRdBursts::4          158                       # Per bank write bursts (Count)
system.mem_ctrls.dram.perBankRdBursts::5           34                       # Per bank write bursts (Count)
system.mem_ctrls.dram.perBankRdBursts::6           23                       # Per bank write bursts (Count)
system.mem_ctrls.dram.perBankRdBursts::7           16                       # Per bank write bursts (Count)
system.mem_ctrls.dram.perBankRdBursts::8          139                       # Per bank write bursts (Count)
system.mem_ctrls.dram.perBankRdBursts::9           56                       # Per bank write bursts (Count)
system.mem_ctrls.dram.perBankRdBursts::10          123                       # Per bank write bursts (Count)
system.mem_ctrls.dram.perBankRdBursts::11          141                       # Per bank write bursts (Count)
system.mem_ctrls.dram.perBankRdBursts::12          142                       # Per bank write bursts (Count)
system.mem_ctrls.dram.perBankRdBursts::13           80                       # Per bank write bursts (Count)
system.mem_ctrls.dram.perBankRdBursts::14          141                       # Per bank write bursts (Count)
system.mem_ctrls.dram.perBankRdBursts::15          110                       # Per bank write bursts (Count)
system.mem_ctrls.dram.perBankWrBursts::0            2                       # Per bank write bursts (Count)
system.mem_ctrls.dram.perBankWrBursts::1           23                       # Per bank write bursts (Count)
system.mem_ctrls.dram.perBankWrBursts::2            1                       # Per bank write bursts (Count)
system.mem_ctrls.dram.perBankWrBursts::3            6                       # Per bank write bursts (Count)
system.mem_ctrls.dram.perBankWrBursts::4            1                       # Per bank write bursts (Count)
system.mem_ctrls.dram.perBankWrBursts::5            0                       # Per bank write bursts (Count)
system.mem_ctrls.dram.perBankWrBursts::6            2                       # Per bank write bursts (Count)
system.mem_ctrls.dram.perBankWrBursts::7            0                       # Per bank write bursts (Count)
system.mem_ctrls.dram.perBankWrBursts::8           51                       # Per bank write bursts (Count)
system.mem_ctrls.dram.perBankWrBursts::9           31                       # Per bank write bursts (Count)
system.mem_ctrls.dram.perBankWrBursts::10            0                       # Per bank write bursts (Count)
system.mem_ctrls.dram.perBankWrBursts::11            0                       # Per bank write bursts (Count)
system.mem_ctrls.dram.perBankWrBursts::12            0                       # Per bank write bursts (Count)
system.mem_ctrls.dram.perBankWrBursts::13            2                       # Per bank write bursts (Count)
system.mem_ctrls.dram.perBankWrBursts::14            1                       # Per bank write bursts (Count)
system.mem_ctrls.dram.perBankWrBursts::15            1                       # Per bank write bursts (Count)
system.mem_ctrls.dram.totQLat                13707500                       # Total ticks spent queuing (Tick)
system.mem_ctrls.dram.totBusLat               8830000                       # Total ticks spent in databus transfers (Tick)
system.mem_ctrls.dram.totMemAccLat           46820000                       # Total ticks spent from burst creation until serviced by the DRAM (Tick)
system.mem_ctrls.dram.avgQLat                 7761.89                       # Average queueing delay per DRAM burst ((Tick/Count))
system.mem_ctrls.dram.avgBusLat               5000.00                       # Average bus latency per DRAM burst ((Tick/Count))
system.mem_ctrls.dram.avgMemAccLat           26511.89                       # Average memory access latency per DRAM burst ((Tick/Count))
system.mem_ctrls.dram.readRowHits                1492                       # Number of row buffer hits during reads (Count)
system.mem_ctrls.dram.writeRowHits                 92                       # Number of row buffer hits during writes (Count)
system.mem_ctrls.dram.readRowHitRate            84.48                       # Row buffer hit rate for reads (Ratio)
system.mem_ctrls.dram.writeRowHitRate           76.03                       # Row buffer hit rate for writes (Ratio)
system.mem_ctrls.dram.bytesPerActivate::samples          304                       # Bytes accessed per row activation (Byte)
system.mem_ctrls.dram.bytesPerActivate::mean   395.789474                       # Bytes accessed per row activation (Byte)
system.mem_ctrls.dram.bytesPerActivate::gmean   245.394866                       # Bytes accessed per row activation (Byte)
system.mem_ctrls.dram.bytesPerActivate::stdev   353.913727                       # Bytes accessed per row activation (Byte)
system.mem_ctrls.dram.bytesPerActivate::0-127           79     25.99%     25.99% # Bytes accessed per row activation (Byte)
system.mem_ctrls.dram.bytesPerActivate::128-255           64     21.05%     47.04% # Bytes accessed per row activation (Byte)
system.mem_ctrls.dram.bytesPerActivate::256-383           37     12.17%     59.21% # Bytes accessed per row activation (Byte)
system.mem_ctrls.dram.bytesPerActivate::384-511           23      7.57%     66.78% # Bytes accessed per row activation (Byte)
system.mem_ctrls.dram.bytesPerActivate::512-639           22      7.24%     74.01% # Bytes accessed per row activation (Byte)
system.mem_ctrls.dram.bytesPerActivate::640-767            7      2.30%     76.32% # Bytes accessed per row activation (Byte)
system.mem_ctrls.dram.bytesPerActivate::768-895           16      5.26%     81.58% # Bytes accessed per row activation (Byte)
system.mem_ctrls.dram.bytesPerActivate::896-1023            8      2.63%     84.21% # Bytes accessed per row activation (Byte)
system.mem_ctrls.dram.bytesPerActivate::1024-1151           48     15.79%    100.00% # Bytes accessed per row activation (Byte)
system.mem_ctrls.dram.bytesPerActivate::total          304                       # Bytes accessed per row activation (Byte)
system.mem_ctrls.dram.bytesRead                113024                       # Total bytes read (Byte)
system.mem_ctrls.dram.bytesWritten               7744                       # Total bytes written (Byte)
system.mem_ctrls.dram.avgRdBW                6.523645                       # Average DRAM read bandwidth in MiBytes/s ((Byte/Second))
system.mem_ctrls.dram.avgWrBW                0.446977                       # Average DRAM write bandwidth in MiBytes/s ((Byte/Second))
system.mem_ctrls.dram.peakBW                 12800.00                       # Theoretical peak bandwidth in MiByte/s ((Byte/Second))
system.mem_ctrls.dram.busUtil                    0.05                       # Data bus utilization in percentage (Ratio)
system.mem_ctrls.dram.busUtilRead                0.05                       # Data bus utilization in percentage for reads (Ratio)
system.mem_ctrls.dram.busUtilWrite               0.00                       # Data bus utilization in percentage for writes (Ratio)
system.mem_ctrls.dram.pageHitRate               83.94                       # Row buffer hit rate, read and write combined (Ratio)
system.mem_ctrls.dram.power_state.pwrStateResidencyTicks::UNDEFINED  17554208000                       # Cumulative time (in ticks) in various power states (Tick)
system.mem_ctrls.dram.rank0.actEnergy         1142400                       # Energy for activate commands per rank (pJ) (Joule)
system.mem_ctrls.dram.rank0.preEnergy          588225                       # Energy for precharge commands per rank (pJ) (Joule)
system.mem_ctrls.dram.rank0.readEnergy        6118980                       # Energy for read commands per rank (pJ) (Joule)
system.mem_ctrls.dram.rank0.writeEnergy        182700                       # Energy for write commands per rank (pJ) (Joule)
system.mem_ctrls.dram.rank0.refreshEnergy 1367574000.000000                       # Energy for refresh commands per rank (pJ) (Joule)
system.mem_ctrls.dram.rank0.actBackEnergy    320087490                       # Energy for active background per rank (pJ) (Joule)
system.mem_ctrls.dram.rank0.preBackEnergy   6384413760                       # Energy for precharge background per rank (pJ) (Joule)
system.mem_ctrls.dram.rank0.actPowerDownEnergy            0                       # Energy for active power-down per rank (pJ) (Joule)
system.mem_ctrls.dram.rank0.prePowerDownEnergy            0                       # Energy for precharge power-down per rank (pJ) (Joule)
system.mem_ctrls.dram.rank0.selfRefreshEnergy            0                       # Energy for self refresh per rank (pJ) (Joule)
system.mem_ctrls.dram.rank0.totalEnergy    8080107555                       # Total energy per rank (pJ) (Joule)
system.mem_ctrls.dram.rank0.averagePower   466.376629                       # Core power per rank (mW) (Watt)
system.mem_ctrls.dram.rank0.totalIdleTime            0                       # Total Idle time Per DRAM Rank (Tick)
system.mem_ctrls.dram.rank0.pwrStateTime::IDLE  16594874250                       # Time in different power states (Tick)
system.mem_ctrls.dram.rank0.pwrStateTime::REF    578500000                       # Time in different power states (Tick)
system.mem_ctrls.dram.rank0.pwrStateTime::SREF            0                       # Time in different power states (Tick)
system.mem_ctrls.dram.rank0.pwrStateTime::PRE_PDN            0                       # Time in different power states (Tick)
system.mem_ctrls.dram.rank0.pwrStateTime::ACT    154648750                       # Time in different power states (Tick)
system.mem_ctrls.dram.rank0.pwrStateTime::ACT_PDN            0                       # Time in different power states (Tick)
system.mem_ctrls.dram.rank1.actEnergy         1128120                       # Energy for activate commands per rank (pJ) (Joule)
system.mem_ctrls.dram.rank1.preEnergy          580635                       # Energy for precharge commands per rank (pJ) (Joule)
system.mem_ctrls.dram.rank1.readEnergy        6825840                       # Energy for read commands per rank (pJ) (Joule)
system.mem_ctrls.dram.rank1.writeEnergy        448920                       # Energy for write commands per rank (pJ) (Joule)
system.mem_ctrls.dram.rank1.refreshEnergy 1367574000.000000                       # Energy for refresh commands per rank (pJ) (Joule)
system.mem_ctrls.dram.rank1.actBackEnergy    338156490                       # Energy for active background per rank (pJ) (Joule)
system.mem_ctrls.dram.rank1.preBackEnergy   6369240000                       # Energy for precharge background per rank (pJ) (Joule)
system.mem_ctrls.dram.rank1.actPowerDownEnergy            0                       # Energy for active power-down per rank (pJ) (Joule)
system.mem_ctrls.dram.rank1.prePowerDownEnergy            0                       # Energy for precharge power-down per rank (pJ) (Joule)
system.mem_ctrls.dram.rank1.selfRefreshEnergy            0                       # Energy for self refresh per rank (pJ) (Joule)
system.mem_ctrls.dram.rank1.totalEnergy    8083954005                       # Total energy per rank (pJ) (Joule)
system.mem_ctrls.dram.rank1.averagePower   466.598643                       # Core power per rank (mW) (Watt)
system.mem_ctrls.dram.rank1.totalIdleTime            0                       # Total Idle time Per DRAM Rank (Tick)
system.mem_ctrls.dram.rank1.pwrStateTime::IDLE  16555575250                       # Time in different power states (Tick)
system.mem_ctrls.dram.rank1.pwrStateTime::REF    578500000                       # Time in different power states (Tick)
system.mem_ctrls.dram.rank1.pwrStateTime::SREF            0                       # Time in different power states (Tick)
system.mem_ctrls.dram.rank1.pwrStateTime::PRE_PDN            0                       # Time in different power states (Tick)
system.mem_ctrls.dram.rank1.pwrStateTime::ACT    194057750                       # Time in different power states (Tick)
system.mem_ctrls.dram.rank1.pwrStateTime::ACT_PDN            0                       # Time in different power states (Tick)
system.mem_ctrls.power_state.pwrStateResidencyTicks::UNDEFINED  17554208000                       # Cumulative time (in ticks) in various power states (Tick)
system.membus.transDist::ReadResp                1637                       # Transaction distribution (Count)
system.membus.transDist::WritebackDirty           121                       # Transaction distribution (Count)
system.membus.transDist::CleanEvict              1668                       # Transaction distribution (Count)
system.membus.transDist::ReadExReq                149                       # Transaction distribution (Count)
system.membus.transDist::ReadExResp               149                       # Transaction distribution (Count)
system.membus.transDist::ReadSharedReq           1638                       # Transaction distribution (Count)
system.membus.pktCount_system.l2cache.mem_side_port::system.mem_ctrls.port         5362                       # Packet count per connected requestor and responder (Count)
system.membus.pktCount_system.l2cache.mem_side_port::total         5362                       # Packet count per connected requestor and responder (Count)
system.membus.pktCount::total                    5362                       # Packet count per connected requestor and responder (Count)
system.membus.pktSize_system.l2cache.mem_side_port::system.mem_ctrls.port       122048                       # Cumulative packet size per connected requestor and responder (Byte)
system.membus.pktSize_system.l2cache.mem_side_port::total       122048                       # Cumulative packet size per connected requestor and responder (Byte)
system.membus.pktSize::total                   122048                       # Cumulative packet size per connected requestor and responder (Byte)
system.membus.snoops                                0                       # Total snoops (Count)
system.membus.snoopTraffic                          0                       # Total snoop traffic (Byte)
system.membus.snoopFanout::samples               1787                       # Request fanout histogram (Count)
system.membus.snoopFanout::mean                     0                       # Request fanout histogram (Count)
system.membus.snoopFanout::stdev                    0                       # Request fanout histogram (Count)
system.membus.snoopFanout::underflows               0      0.00%      0.00% # Request fanout histogram (Count)
system.membus.snoopFanout::0                     1787    100.00%    100.00% # Request fanout histogram (Count)
system.membus.snoopFanout::1                        0      0.00%    100.00% # Request fanout histogram (Count)
system.membus.snoopFanout::overflows                0      0.00%    100.00% # Request fanout histogram (Count)
system.membus.snoopFanout::min_value                0                       # Request fanout histogram (Count)
system.membus.snoopFanout::max_value                0                       # Request fanout histogram (Count)
system.membus.snoopFanout::total                 1787                       # Request fanout histogram (Count)
system.membus.power_state.pwrStateResidencyTicks::UNDEFINED  17554208000                       # Cumulative time (in ticks) in various power states (Tick)
system.membus.reqLayer2.occupancy             2030000                       # Layer occupancy (ticks) (Tick)
system.membus.reqLayer2.utilization               0.0                       # Layer utilization (Ratio)
system.membus.respLayer1.occupancy            4852750                       # Layer occupancy (ticks) (Tick)
system.membus.respLayer1.utilization              0.0                       # Layer utilization (Ratio)
system.membus.snoop_filter.totRequests           3576                       # Total number of requests made to the snoop filter. (Count)
system.membus.snoop_filter.hitSingleRequests         1789                       # Number of requests hitting in the snoop filter with a single holder of the requested data. (Count)
system.membus.snoop_filter.hitMultiRequests            0                       # Number of requests hitting in the snoop filter with multiple (>1) holders of the requested data. (Count)
system.membus.snoop_filter.totSnoops                0                       # Total number of snoops made to the snoop filter. (Count)
system.membus.snoop_filter.hitSingleSnoops            0                       # Number of snoops hitting in the snoop filter with a single holder of the requested data. (Count)
system.membus.snoop_filter.hitMultiSnoops            0                       # Number of snoops hitting in the snoop filter with multiple (>1) holders of the requested data. (Count)
system.workload.inst.arm                            0                       # number of arm instructions executed (Count)
system.workload.inst.quiesce                        0                       # number of quiesce instructions executed (Count)

---------- End Simulation Statistics   ----------
