
---------- Begin Simulation Statistics ----------
simSeconds                                   0.069989                       # Number of seconds simulated (Second)
simTicks                                  69988879500                       # Number of ticks simulated (Tick)
finalTick                                 69988879500                       # Number of ticks from beginning of simulation (restored from checkpoints and never reset) (Tick)
simFreq                                  1000000000000                       # The number of ticks per simulated second ((Tick/Second))
hostSeconds                                    236.96                       # Real time elapsed on the host (Second)
hostTickRate                                295360445                       # The number of ticks simulated per host second (ticks/s) ((Tick/Second))
hostMemory                                     809152                       # Number of bytes of host memory used (Byte)
simInsts                                     43792102                       # Number of instructions simulated (Count)
simOps                                       83675939                       # Number of ops (including micro ops) simulated (Count)
hostInstRate                                   184807                       # Simulator instruction rate (inst/s) ((Count/Second))
hostOpRate                                     353121                       # Simulator op (including micro ops) rate (op/s) ((Count/Second))
system.clk_domain.clock                           500                       # Clock period in ticks (Tick)
system.clk_domain.voltage_domain.voltage            1                       # Voltage in Volts (Volt)
system.cpu.numCycles                        139977760                       # Number of cpu cycles simulated (Cycle)
system.cpu.numWorkItemsStarted                      0                       # Number of work items this cpu started (Count)
system.cpu.numWorkItemsCompleted                    0                       # Number of work items this cpu completed (Count)
system.cpu.instsAdded                        85917298                       # Number of instructions added to the IQ (excludes non-spec) (Count)
system.cpu.nonSpecInstsAdded                      164                       # Number of non-speculative instructions added to the IQ (Count)
system.cpu.instsIssued                       85541969                       # Number of instructions issued (Count)
system.cpu.squashedInstsIssued                  11728                       # Number of squashed instructions issued (Count)
system.cpu.squashedInstsExamined              2241515                       # Number of squashed instructions iterated over during squash; mainly for profiling (Count)
system.cpu.squashedOperandsExamined           3278047                       # Number of squashed operands that are examined and possibly removed from graph (Count)
system.cpu.squashedNonSpecRemoved                  83                       # Number of squashed non-spec instructions that were removed (Count)
system.cpu.numIssuedDist::samples           126884063                       # Number of insts issued each cycle (Count)
system.cpu.numIssuedDist::mean               0.674174                       # Number of insts issued each cycle (Count)
system.cpu.numIssuedDist::stdev              0.845040                       # Number of insts issued each cycle (Count)
system.cpu.numIssuedDist::underflows                0      0.00%      0.00% # Number of insts issued each cycle (Count)
system.cpu.numIssuedDist::0                  72709703     57.30%     57.30% # Number of insts issued each cycle (Count)
system.cpu.numIssuedDist::1                  22806751     17.97%     75.28% # Number of insts issued each cycle (Count)
system.cpu.numIssuedDist::2                  31367609     24.72%    100.00% # Number of insts issued each cycle (Count)
system.cpu.numIssuedDist::overflows                 0      0.00%    100.00% # Number of insts issued each cycle (Count)
system.cpu.numIssuedDist::min_value                 0                       # Number of insts issued each cycle (Count)
system.cpu.numIssuedDist::max_value                 2                       # Number of insts issued each cycle (Count)
system.cpu.numIssuedDist::total             126884063                       # Number of insts issued each cycle (Count)
system.cpu.statFuBusy::No_OpClass                   0                       # attempts to use FU when none available (Count)
system.cpu.statFuBusy::IntAlu                       0                       # attempts to use FU when none available (Count)
system.cpu.statFuBusy::IntMult                      0                       # attempts to use FU when none available (Count)
system.cpu.statFuBusy::IntDiv                       0                       # attempts to use FU when none available (Count)
system.cpu.statFuBusy::FloatAdd                     0                       # attempts to use FU when none available (Count)
system.cpu.statFuBusy::FloatCmp                     0                       # attempts to use FU when none available (Count)
system.cpu.statFuBusy::FloatCvt                     0                       # attempts to use FU when none available (Count)
system.cpu.statFuBusy::FloatMult                    0                       # attempts to use FU when none available (Count)
system.cpu.statFuBusy::FloatMultAcc                 0                       # attempts to use FU when none available (Count)
system.cpu.statFuBusy::FloatDiv                     0                       # attempts to use FU when none available (Count)
system.cpu.statFuBusy::FloatMisc                    0                       # attempts to use FU when none available (Count)
system.cpu.statFuBusy::FloatSqrt                    0                       # attempts to use FU when none available (Count)
system.cpu.statFuBusy::SimdAdd                      0                       # attempts to use FU when none available (Count)
system.cpu.statFuBusy::SimdAddAcc                   0                       # attempts to use FU when none available (Count)
system.cpu.statFuBusy::SimdAlu                      0                       # attempts to use FU when none available (Count)
system.cpu.statFuBusy::SimdCmp                      0                       # attempts to use FU when none available (Count)
system.cpu.statFuBusy::SimdCvt                      0                       # attempts to use FU when none available (Count)
system.cpu.statFuBusy::SimdMisc                     0                       # attempts to use FU when none available (Count)
system.cpu.statFuBusy::SimdMult                     0                       # attempts to use FU when none available (Count)
system.cpu.statFuBusy::SimdMultAcc                  0                       # attempts to use FU when none available (Count)
system.cpu.statFuBusy::SimdShift                    0                       # attempts to use FU when none available (Count)
system.cpu.statFuBusy::SimdShiftAcc                 0                       # attempts to use FU when none available (Count)
system.cpu.statFuBusy::SimdDiv                      0                       # attempts to use FU when none available (Count)
system.cpu.statFuBusy::SimdSqrt                     0                       # attempts to use FU when none available (Count)
system.cpu.statFuBusy::SimdFloatAdd                 0                       # attempts to use FU when none available (Count)
system.cpu.statFuBusy::SimdFloatAlu                 0                       # attempts to use FU when none available (Count)
system.cpu.statFuBusy::SimdFloatCmp                 0                       # attempts to use FU when none available (Count)
system.cpu.statFuBusy::SimdFloatCvt                 0                       # attempts to use FU when none available (Count)
system.cpu.statFuBusy::SimdFloatDiv                 0                       # attempts to use FU when none available (Count)
system.cpu.statFuBusy::SimdFloatMisc                0                       # attempts to use FU when none available (Count)
system.cpu.statFuBusy::SimdFloatMult                0                       # attempts to use FU when none available (Count)
system.cpu.statFuBusy::SimdFloatMultAcc             0                       # attempts to use FU when none available (Count)
system.cpu.statFuBusy::SimdFloatSqrt                0                       # attempts to use FU when none available (Count)
system.cpu.statFuBusy::SimdReduceAdd                0                       # attempts to use FU when none available (Count)
system.cpu.statFuBusy::SimdReduceAlu                0                       # attempts to use FU when none available (Count)
system.cpu.statFuBusy::SimdReduceCmp                0                       # attempts to use FU when none available (Count)
system.cpu.statFuBusy::SimdFloatReduceAdd            0                       # attempts to use FU when none available (Count)
system.cpu.statFuBusy::SimdFloatReduceCmp            0                       # attempts to use FU when none available (Count)
system.cpu.statFuBusy::SimdAes                      0                       # attempts to use FU when none available (Count)
system.cpu.statFuBusy::SimdAesMix                   0                       # attempts to use FU when none available (Count)
system.cpu.statFuBusy::SimdSha1Hash                 0                       # attempts to use FU when none available (Count)
system.cpu.statFuBusy::SimdSha1Hash2                0                       # attempts to use FU when none available (Count)
system.cpu.statFuBusy::SimdSha256Hash               0                       # attempts to use FU when none available (Count)
system.cpu.statFuBusy::SimdSha256Hash2              0                       # attempts to use FU when none available (Count)
system.cpu.statFuBusy::SimdShaSigma2                0                       # attempts to use FU when none available (Count)
system.cpu.statFuBusy::SimdShaSigma3                0                       # attempts to use FU when none available (Count)
system.cpu.statFuBusy::SimdPredAlu                  0                       # attempts to use FU when none available (Count)
system.cpu.statFuBusy::MemRead                      0                       # attempts to use FU when none available (Count)
system.cpu.statFuBusy::MemWrite                     0                       # attempts to use FU when none available (Count)
system.cpu.statFuBusy::FloatMemRead                 0                       # attempts to use FU when none available (Count)
system.cpu.statFuBusy::FloatMemWrite                0                       # attempts to use FU when none available (Count)
system.cpu.statFuBusy::IprAccess                    0                       # attempts to use FU when none available (Count)
system.cpu.statFuBusy::InstPrefetch                 0                       # attempts to use FU when none available (Count)
system.cpu.statIssuedInstType_0::No_OpClass       132129      0.15%      0.15% # Number of instructions issued per FU type, per thread (Count)
system.cpu.statIssuedInstType_0::IntAlu      67921541     79.40%     79.56% # Number of instructions issued per FU type, per thread (Count)
system.cpu.statIssuedInstType_0::IntMult       161124      0.19%     79.74% # Number of instructions issued per FU type, per thread (Count)
system.cpu.statIssuedInstType_0::IntDiv          3475      0.00%     79.75% # Number of instructions issued per FU type, per thread (Count)
system.cpu.statIssuedInstType_0::FloatAdd        12361      0.01%     79.76% # Number of instructions issued per FU type, per thread (Count)
system.cpu.statIssuedInstType_0::FloatCmp            0      0.00%     79.76% # Number of instructions issued per FU type, per thread (Count)
system.cpu.statIssuedInstType_0::FloatCvt          144      0.00%     79.76% # Number of instructions issued per FU type, per thread (Count)
system.cpu.statIssuedInstType_0::FloatMult            0      0.00%     79.76% # Number of instructions issued per FU type, per thread (Count)
system.cpu.statIssuedInstType_0::FloatMultAcc            0      0.00%     79.76% # Number of instructions issued per FU type, per thread (Count)
system.cpu.statIssuedInstType_0::FloatDiv            0      0.00%     79.76% # Number of instructions issued per FU type, per thread (Count)
system.cpu.statIssuedInstType_0::FloatMisc            0      0.00%     79.76% # Number of instructions issued per FU type, per thread (Count)
system.cpu.statIssuedInstType_0::FloatSqrt            0      0.00%     79.76% # Number of instructions issued per FU type, per thread (Count)
system.cpu.statIssuedInstType_0::SimdAdd            0      0.00%     79.76% # Number of instructions issued per FU type, per thread (Count)
system.cpu.statIssuedInstType_0::SimdAddAcc            0      0.00%     79.76% # Number of instructions issued per FU type, per thread (Count)
system.cpu.statIssuedInstType_0::SimdAlu        24608      0.03%     79.79% # Number of instructions issued per FU type, per thread (Count)
system.cpu.statIssuedInstType_0::SimdCmp            0      0.00%     79.79% # Number of instructions issued per FU type, per thread (Count)
system.cpu.statIssuedInstType_0::SimdCvt        49190      0.06%     79.85% # Number of instructions issued per FU type, per thread (Count)
system.cpu.statIssuedInstType_0::SimdMisc       135213      0.16%     80.01% # Number of instructions issued per FU type, per thread (Count)
system.cpu.statIssuedInstType_0::SimdMult            0      0.00%     80.01% # Number of instructions issued per FU type, per thread (Count)
system.cpu.statIssuedInstType_0::SimdMultAcc            0      0.00%     80.01% # Number of instructions issued per FU type, per thread (Count)
system.cpu.statIssuedInstType_0::SimdShift            0      0.00%     80.01% # Number of instructions issued per FU type, per thread (Count)
system.cpu.statIssuedInstType_0::SimdShiftAcc            0      0.00%     80.01% # Number of instructions issued per FU type, per thread (Count)
system.cpu.statIssuedInstType_0::SimdDiv            0      0.00%     80.01% # Number of instructions issued per FU type, per thread (Count)
system.cpu.statIssuedInstType_0::SimdSqrt            0      0.00%     80.01% # Number of instructions issued per FU type, per thread (Count)
system.cpu.statIssuedInstType_0::SimdFloatAdd            0      0.00%     80.01% # Number of instructions issued per FU type, per thread (Count)
system.cpu.statIssuedInstType_0::SimdFloatAlu            0      0.00%     80.01% # Number of instructions issued per FU type, per thread (Count)
system.cpu.statIssuedInstType_0::SimdFloatCmp            0      0.00%     80.01% # Number of instructions issued per FU type, per thread (Count)
system.cpu.statIssuedInstType_0::SimdFloatCvt            0      0.00%     80.01% # Number of instructions issued per FU type, per thread (Count)
system.cpu.statIssuedInstType_0::SimdFloatDiv            0      0.00%     80.01% # Number of instructions issued per FU type, per thread (Count)
system.cpu.statIssuedInstType_0::SimdFloatMisc            0      0.00%     80.01% # Number of instructions issued per FU type, per thread (Count)
system.cpu.statIssuedInstType_0::SimdFloatMult            0      0.00%     80.01% # Number of instructions issued per FU type, per thread (Count)
system.cpu.statIssuedInstType_0::SimdFloatMultAcc            0      0.00%     80.01% # Number of instructions issued per FU type, per thread (Count)
system.cpu.statIssuedInstType_0::SimdFloatSqrt            0      0.00%     80.01% # Number of instructions issued per FU type, per thread (Count)
system.cpu.statIssuedInstType_0::SimdReduceAdd            0      0.00%     80.01% # Number of instructions issued per FU type, per thread (Count)
system.cpu.statIssuedInstType_0::SimdReduceAlu            0      0.00%     80.01% # Number of instructions issued per FU type, per thread (Count)
system.cpu.statIssuedInstType_0::SimdReduceCmp            0      0.00%     80.01% # Number of instructions issued per FU type, per thread (Count)
system.cpu.statIssuedInstType_0::SimdFloatReduceAdd            0      0.00%     80.01% # Number of instructions issued per FU type, per thread (Count)
system.cpu.statIssuedInstType_0::SimdFloatReduceCmp            0      0.00%     80.01% # Number of instructions issued per FU type, per thread (Count)
system.cpu.statIssuedInstType_0::SimdAes            0      0.00%     80.01% # Number of instructions issued per FU type, per thread (Count)
system.cpu.statIssuedInstType_0::SimdAesMix            0      0.00%     80.01% # Number of instructions issued per FU type, per thread (Count)
system.cpu.statIssuedInstType_0::SimdSha1Hash            0      0.00%     80.01% # Number of instructions issued per FU type, per thread (Count)
system.cpu.statIssuedInstType_0::SimdSha1Hash2            0      0.00%     80.01% # Number of instructions issued per FU type, per thread (Count)
system.cpu.statIssuedInstType_0::SimdSha256Hash            0      0.00%     80.01% # Number of instructions issued per FU type, per thread (Count)
system.cpu.statIssuedInstType_0::SimdSha256Hash2            0      0.00%     80.01% # Number of instructions issued per FU type, per thread (Count)
system.cpu.statIssuedInstType_0::SimdShaSigma2            0      0.00%     80.01% # Number of instructions issued per FU type, per thread (Count)
system.cpu.statIssuedInstType_0::SimdShaSigma3            0      0.00%     80.01% # Number of instructions issued per FU type, per thread (Count)
system.cpu.statIssuedInstType_0::SimdPredAlu            0      0.00%     80.01% # Number of instructions issued per FU type, per thread (Count)
system.cpu.statIssuedInstType_0::MemRead     10618040     12.41%     92.42% # Number of instructions issued per FU type, per thread (Count)
system.cpu.statIssuedInstType_0::MemWrite      6458926      7.55%     99.97% # Number of instructions issued per FU type, per thread (Count)
system.cpu.statIssuedInstType_0::FloatMemRead        24918      0.03%    100.00% # Number of instructions issued per FU type, per thread (Count)
system.cpu.statIssuedInstType_0::FloatMemWrite          300      0.00%    100.00% # Number of instructions issued per FU type, per thread (Count)
system.cpu.statIssuedInstType_0::IprAccess            0      0.00%    100.00% # Number of instructions issued per FU type, per thread (Count)
system.cpu.statIssuedInstType_0::InstPrefetch            0      0.00%    100.00% # Number of instructions issued per FU type, per thread (Count)
system.cpu.statIssuedInstType_0::total       85541969                       # Number of instructions issued per FU type, per thread (Count)
system.cpu.issueRate                         0.611111                       # Inst issue rate ((Count/Cycle))
system.cpu.fuBusy                                   0                       # FU busy when requested (Count)
system.cpu.fuBusyRate                               0                       # FU busy rate (busy events/executed inst) ((Count/Count))
system.cpu.intInstQueueReads                297412505                       # Number of integer instruction queue reads (Count)
system.cpu.intInstQueueWrites                87875305                       # Number of integer instruction queue writes (Count)
system.cpu.intInstQueueWakeupAccesses        84501557                       # Number of integer instruction queue wakeup accesses (Count)
system.cpu.fpInstQueueReads                    567222                       # Number of floating instruction queue reads (Count)
system.cpu.fpInstQueueWrites                   283687                       # Number of floating instruction queue writes (Count)
system.cpu.fpInstQueueWakeupAccesses           283588                       # Number of floating instruction queue wakeup accesses (Count)
system.cpu.vecInstQueueReads                        0                       # Number of vector instruction queue reads (Count)
system.cpu.vecInstQueueWrites                       0                       # Number of vector instruction queue writes (Count)
system.cpu.vecInstQueueWakeupAccesses               0                       # Number of vector instruction queue wakeup accesses (Count)
system.cpu.intAluAccesses                    85126231                       # Number of integer alu accesses (Count)
system.cpu.fpAluAccesses                       283609                       # Number of floating point alu accesses (Count)
system.cpu.vecAluAccesses                           0                       # Number of vector alu accesses (Count)
system.cpu.numInsts                          85046206                       # Number of executed instructions (Count)
system.cpu.numLoadInsts                      10635710                       # Number of load instructions executed (Count)
system.cpu.numSquashedInsts                    495761                       # Number of squashed instructions skipped in execute (Count)
system.cpu.numSwp                                   0                       # Number of swp insts executed (Count)
system.cpu.numNop                                   0                       # Number of nop insts executed (Count)
system.cpu.numRefs                           17039149                       # Number of memory reference insts executed (Count)
system.cpu.numBranches                       10389024                       # Number of branches executed (Count)
system.cpu.numStoreInsts                      6403439                       # Number of stores executed (Count)
system.cpu.numRate                           0.607569                       # Inst execution rate ((Count/Cycle))
system.cpu.timesIdled                         2887751                       # Number of times that the entire CPU went into an idle state and unscheduled itself (Count)
system.cpu.idleCycles                        13093697                       # Total number of cycles that the CPU has spent unscheduled due to idling (Cycle)
system.cpu.committedInsts                    43792102                       # Number of Instructions Simulated (Count)
system.cpu.committedOps                      83675939                       # Number of Ops (including micro ops) Simulated (Count)
system.cpu.cpi                               3.196416                       # CPI: Cycles Per Instruction ((Cycle/Count))
system.cpu.totalCpi                          3.196416                       # CPI: Total CPI of All Threads ((Cycle/Count))
system.cpu.ipc                               0.312850                       # IPC: Instructions Per Cycle ((Count/Cycle))
system.cpu.totalIpc                          0.312850                       # IPC: Total IPC of All Threads ((Count/Cycle))
system.cpu.intRegfileReads                  103024837                       # Number of integer regfile reads (Count)
system.cpu.intRegfileWrites                  58965913                       # Number of integer regfile writes (Count)
system.cpu.fpRegfileReads                      504501                       # Number of floating regfile reads (Count)
system.cpu.fpRegfileWrites                     233958                       # Number of floating regfile writes (Count)
system.cpu.ccRegfileReads                    52137759                       # number of cc regfile reads (Count)
system.cpu.ccRegfileWrites                   27226383                       # number of cc regfile writes (Count)
system.cpu.miscRegfileReads                  38192198                       # number of misc regfile reads (Count)
system.cpu.miscRegfileWrites                       81                       # number of misc regfile writes (Count)
system.cpu.MemDepUnit__0.insertedLoads       10649399                       # Number of loads inserted to the mem dependence unit. (Count)
system.cpu.MemDepUnit__0.insertedStores       6525451                       # Number of stores inserted to the mem dependence unit. (Count)
system.cpu.MemDepUnit__0.conflictingLoads        55742                       # Number of conflicting loads. (Count)
system.cpu.MemDepUnit__0.conflictingStores         1869                       # Number of conflicting stores. (Count)
system.cpu.MemDepUnit__1.insertedLoads              0                       # Number of loads inserted to the mem dependence unit. (Count)
system.cpu.MemDepUnit__1.insertedStores             0                       # Number of stores inserted to the mem dependence unit. (Count)
system.cpu.MemDepUnit__1.conflictingLoads            0                       # Number of conflicting loads. (Count)
system.cpu.MemDepUnit__1.conflictingStores            0                       # Number of conflicting stores. (Count)
system.cpu.MemDepUnit__2.insertedLoads              0                       # Number of loads inserted to the mem dependence unit. (Count)
system.cpu.MemDepUnit__2.insertedStores             0                       # Number of stores inserted to the mem dependence unit. (Count)
system.cpu.MemDepUnit__2.conflictingLoads            0                       # Number of conflicting loads. (Count)
system.cpu.MemDepUnit__2.conflictingStores            0                       # Number of conflicting stores. (Count)
system.cpu.MemDepUnit__3.insertedLoads              0                       # Number of loads inserted to the mem dependence unit. (Count)
system.cpu.MemDepUnit__3.insertedStores             0                       # Number of stores inserted to the mem dependence unit. (Count)
system.cpu.MemDepUnit__3.conflictingLoads            0                       # Number of conflicting loads. (Count)
system.cpu.MemDepUnit__3.conflictingStores            0                       # Number of conflicting stores. (Count)
system.cpu.branchPred.lookups                11071560                       # Number of BP lookups (Count)
system.cpu.branchPred.condPredicted           9024086                       # Number of conditional branches predicted (Count)
system.cpu.branchPred.condIncorrect            495469                       # Number of conditional branches incorrect (Count)
system.cpu.branchPred.BTBLookups              4509671                       # Number of BTB lookups (Count)
system.cpu.branchPred.BTBHits                 4289123                       # Number of BTB hits (Count)
system.cpu.branchPred.BTBHitRatio            0.951094                       # BTB Hit Ratio (Ratio)
system.cpu.branchPred.RASUsed                  362106                       # Number of times the RAS was used to get a target. (Count)
system.cpu.branchPred.RASIncorrect                  0                       # Number of incorrect RAS predictions. (Count)
system.cpu.branchPred.indirectLookups          210252                       # Number of indirect predictor lookups. (Count)
system.cpu.branchPred.indirectHits             209036                       # Number of indirect target hits. (Count)
system.cpu.branchPred.indirectMisses             1216                       # Number of indirect misses. (Count)
system.cpu.branchPred.indirectMispredicted          273                       # Number of mispredicted indirect branches. (Count)
system.cpu.commit.commitSquashedInsts         2239732                       # The number of squashed insts skipped by commit (Count)
system.cpu.commit.commitNonSpecStalls              81                       # The number of times commit has been forced to stall to communicate backwards (Count)
system.cpu.commit.branchMispredicts            441636                       # The number of times a branch was mispredicted (Count)
system.cpu.commit.numCommittedDist::samples    126376796                       # Number of insts commited each cycle (Count)
system.cpu.commit.numCommittedDist::mean     0.662115                       # Number of insts commited each cycle (Count)
system.cpu.commit.numCommittedDist::stdev     0.869388                       # Number of insts commited each cycle (Count)
system.cpu.commit.numCommittedDist::underflows            0      0.00%      0.00% # Number of insts commited each cycle (Count)
system.cpu.commit.numCommittedDist::0        76324410     60.39%     60.39% # Number of insts commited each cycle (Count)
system.cpu.commit.numCommittedDist::1        16428833     13.00%     73.39% # Number of insts commited each cycle (Count)
system.cpu.commit.numCommittedDist::2        33623553     26.61%    100.00% # Number of insts commited each cycle (Count)
system.cpu.commit.numCommittedDist::overflows            0      0.00%    100.00% # Number of insts commited each cycle (Count)
system.cpu.commit.numCommittedDist::min_value            0                       # Number of insts commited each cycle (Count)
system.cpu.commit.numCommittedDist::max_value            2                       # Number of insts commited each cycle (Count)
system.cpu.commit.numCommittedDist::total    126376796                       # Number of insts commited each cycle (Count)
system.cpu.commit.instsCommitted             43792102                       # Number of instructions committed (Count)
system.cpu.commit.opsCommitted               83675939                       # Number of ops (including micro ops) committed (Count)
system.cpu.commit.memRefs                    16726530                       # Number of memory references committed (Count)
system.cpu.commit.loads                      10332004                       # Number of loads committed (Count)
system.cpu.commit.amos                              0                       # Number of atomic instructions committed (Count)
system.cpu.commit.membars                           0                       # Number of memory barriers committed (Count)
system.cpu.commit.branches                   10325655                       # Number of branches committed (Count)
system.cpu.commit.vectorInstructions                0                       # Number of committed Vector instructions. (Count)
system.cpu.commit.floating                     283565                       # Number of committed floating point instructions. (Count)
system.cpu.commit.integer                    83217551                       # Number of committed integer instructions. (Count)
system.cpu.commit.functionCalls                353437                       # Number of function calls committed. (Count)
system.cpu.commit.committedInstType_0::No_OpClass       131735      0.16%      0.16% # Class of committed instruction (Count)
system.cpu.commit.committedInstType_0::IntAlu     66432143     79.39%     79.55% # Class of committed instruction (Count)
system.cpu.commit.committedInstType_0::IntMult       161122      0.19%     79.74% # Class of committed instruction (Count)
system.cpu.commit.committedInstType_0::IntDiv         2897      0.00%     79.75% # Class of committed instruction (Count)
system.cpu.commit.committedInstType_0::FloatAdd        12361      0.01%     79.76% # Class of committed instruction (Count)
system.cpu.commit.committedInstType_0::FloatCmp            0      0.00%     79.76% # Class of committed instruction (Count)
system.cpu.commit.committedInstType_0::FloatCvt          144      0.00%     79.76% # Class of committed instruction (Count)
system.cpu.commit.committedInstType_0::FloatMult            0      0.00%     79.76% # Class of committed instruction (Count)
system.cpu.commit.committedInstType_0::FloatMultAcc            0      0.00%     79.76% # Class of committed instruction (Count)
system.cpu.commit.committedInstType_0::FloatDiv            0      0.00%     79.76% # Class of committed instruction (Count)
system.cpu.commit.committedInstType_0::FloatMisc            0      0.00%     79.76% # Class of committed instruction (Count)
system.cpu.commit.committedInstType_0::FloatSqrt            0      0.00%     79.76% # Class of committed instruction (Count)
system.cpu.commit.committedInstType_0::SimdAdd            0      0.00%     79.76% # Class of committed instruction (Count)
system.cpu.commit.committedInstType_0::SimdAddAcc            0      0.00%     79.76% # Class of committed instruction (Count)
system.cpu.commit.committedInstType_0::SimdAlu        24608      0.03%     79.79% # Class of committed instruction (Count)
system.cpu.commit.committedInstType_0::SimdCmp            0      0.00%     79.79% # Class of committed instruction (Count)
system.cpu.commit.committedInstType_0::SimdCvt        49188      0.06%     79.85% # Class of committed instruction (Count)
system.cpu.commit.committedInstType_0::SimdMisc       135211      0.16%     80.01% # Class of committed instruction (Count)
system.cpu.commit.committedInstType_0::SimdMult            0      0.00%     80.01% # Class of committed instruction (Count)
system.cpu.commit.committedInstType_0::SimdMultAcc            0      0.00%     80.01% # Class of committed instruction (Count)
system.cpu.commit.committedInstType_0::SimdShift            0      0.00%     80.01% # Class of committed instruction (Count)
system.cpu.commit.committedInstType_0::SimdShiftAcc            0      0.00%     80.01% # Class of committed instruction (Count)
system.cpu.commit.committedInstType_0::SimdDiv            0      0.00%     80.01% # Class of committed instruction (Count)
system.cpu.commit.committedInstType_0::SimdSqrt            0      0.00%     80.01% # Class of committed instruction (Count)
system.cpu.commit.committedInstType_0::SimdFloatAdd            0      0.00%     80.01% # Class of committed instruction (Count)
system.cpu.commit.committedInstType_0::SimdFloatAlu            0      0.00%     80.01% # Class of committed instruction (Count)
system.cpu.commit.committedInstType_0::SimdFloatCmp            0      0.00%     80.01% # Class of committed instruction (Count)
system.cpu.commit.committedInstType_0::SimdFloatCvt            0      0.00%     80.01% # Class of committed instruction (Count)
system.cpu.commit.committedInstType_0::SimdFloatDiv            0      0.00%     80.01% # Class of committed instruction (Count)
system.cpu.commit.committedInstType_0::SimdFloatMisc            0      0.00%     80.01% # Class of committed instruction (Count)
system.cpu.commit.committedInstType_0::SimdFloatMult            0      0.00%     80.01% # Class of committed instruction (Count)
system.cpu.commit.committedInstType_0::SimdFloatMultAcc            0      0.00%     80.01% # Class of committed instruction (Count)
system.cpu.commit.committedInstType_0::SimdFloatSqrt            0      0.00%     80.01% # Class of committed instruction (Count)
system.cpu.commit.committedInstType_0::SimdReduceAdd            0      0.00%     80.01% # Class of committed instruction (Count)
system.cpu.commit.committedInstType_0::SimdReduceAlu            0      0.00%     80.01% # Class of committed instruction (Count)
system.cpu.commit.committedInstType_0::SimdReduceCmp            0      0.00%     80.01% # Class of committed instruction (Count)
system.cpu.commit.committedInstType_0::SimdFloatReduceAdd            0      0.00%     80.01% # Class of committed instruction (Count)
system.cpu.commit.committedInstType_0::SimdFloatReduceCmp            0      0.00%     80.01% # Class of committed instruction (Count)
system.cpu.commit.committedInstType_0::SimdAes            0      0.00%     80.01% # Class of committed instruction (Count)
system.cpu.commit.committedInstType_0::SimdAesMix            0      0.00%     80.01% # Class of committed instruction (Count)
system.cpu.commit.committedInstType_0::SimdSha1Hash            0      0.00%     80.01% # Class of committed instruction (Count)
system.cpu.commit.committedInstType_0::SimdSha1Hash2            0      0.00%     80.01% # Class of committed instruction (Count)
system.cpu.commit.committedInstType_0::SimdSha256Hash            0      0.00%     80.01% # Class of committed instruction (Count)
system.cpu.commit.committedInstType_0::SimdSha256Hash2            0      0.00%     80.01% # Class of committed instruction (Count)
system.cpu.commit.committedInstType_0::SimdShaSigma2            0      0.00%     80.01% # Class of committed instruction (Count)
system.cpu.commit.committedInstType_0::SimdShaSigma3            0      0.00%     80.01% # Class of committed instruction (Count)
system.cpu.commit.committedInstType_0::SimdPredAlu            0      0.00%     80.01% # Class of committed instruction (Count)
system.cpu.commit.committedInstType_0::MemRead     10307114     12.32%     92.33% # Class of committed instruction (Count)
system.cpu.commit.committedInstType_0::MemWrite      6394238      7.64%     99.97% # Class of committed instruction (Count)
system.cpu.commit.committedInstType_0::FloatMemRead        24890      0.03%    100.00% # Class of committed instruction (Count)
system.cpu.commit.committedInstType_0::FloatMemWrite          288      0.00%    100.00% # Class of committed instruction (Count)
system.cpu.commit.committedInstType_0::IprAccess            0      0.00%    100.00% # Class of committed instruction (Count)
system.cpu.commit.committedInstType_0::InstPrefetch            0      0.00%    100.00% # Class of committed instruction (Count)
system.cpu.commit.committedInstType_0::total     83675939                       # Class of committed instruction (Count)
system.cpu.commit.commitEligibleSamples      33623553                       # number cycles where commit BW limit reached (Cycle)
system.cpu.dcache.demandHits::cpu.data       15966277                       # number of demand (read+write) hits (Count)
system.cpu.dcache.demandHits::total          15966277                       # number of demand (read+write) hits (Count)
system.cpu.dcache.overallHits::cpu.data      15966277                       # number of overall hits (Count)
system.cpu.dcache.overallHits::total         15966277                       # number of overall hits (Count)
system.cpu.dcache.demandMisses::cpu.data       811592                       # number of demand (read+write) misses (Count)
system.cpu.dcache.demandMisses::total          811592                       # number of demand (read+write) misses (Count)
system.cpu.dcache.overallMisses::cpu.data       811592                       # number of overall misses (Count)
system.cpu.dcache.overallMisses::total         811592                       # number of overall misses (Count)
system.cpu.dcache.demandMissLatency::cpu.data  11744746000                       # number of demand (read+write) miss ticks (Tick)
system.cpu.dcache.demandMissLatency::total  11744746000                       # number of demand (read+write) miss ticks (Tick)
system.cpu.dcache.overallMissLatency::cpu.data  11744746000                       # number of overall miss ticks (Tick)
system.cpu.dcache.overallMissLatency::total  11744746000                       # number of overall miss ticks (Tick)
system.cpu.dcache.demandAccesses::cpu.data     16777869                       # number of demand (read+write) accesses (Count)
system.cpu.dcache.demandAccesses::total      16777869                       # number of demand (read+write) accesses (Count)
system.cpu.dcache.overallAccesses::cpu.data     16777869                       # number of overall (read+write) accesses (Count)
system.cpu.dcache.overallAccesses::total     16777869                       # number of overall (read+write) accesses (Count)
system.cpu.dcache.demandMissRate::cpu.data     0.048373                       # miss rate for demand accesses (Ratio)
system.cpu.dcache.demandMissRate::total      0.048373                       # miss rate for demand accesses (Ratio)
system.cpu.dcache.overallMissRate::cpu.data     0.048373                       # miss rate for overall accesses (Ratio)
system.cpu.dcache.overallMissRate::total     0.048373                       # miss rate for overall accesses (Ratio)
system.cpu.dcache.demandAvgMissLatency::cpu.data 14471.244172                       # average overall miss latency in ticks ((Tick/Count))
system.cpu.dcache.demandAvgMissLatency::total 14471.244172                       # average overall miss latency in ticks ((Tick/Count))
system.cpu.dcache.overallAvgMissLatency::cpu.data 14471.244172                       # average overall miss latency ((Tick/Count))
system.cpu.dcache.overallAvgMissLatency::total 14471.244172                       # average overall miss latency ((Tick/Count))
system.cpu.dcache.blockedCycles::no_mshrs         1713                       # number of cycles access was blocked (Cycle)
system.cpu.dcache.blockedCycles::no_targets            0                       # number of cycles access was blocked (Cycle)
system.cpu.dcache.blockedCauses::no_mshrs           60                       # number of times access was blocked (Count)
system.cpu.dcache.blockedCauses::no_targets            0                       # number of times access was blocked (Count)
system.cpu.dcache.avgBlocked::no_mshrs      28.550000                       # average number of cycles each access was blocked ((Cycle/Count))
system.cpu.dcache.avgBlocked::no_targets          nan                       # average number of cycles each access was blocked ((Cycle/Count))
system.cpu.dcache.writebacks::writebacks       412605                       # number of writebacks (Count)
system.cpu.dcache.writebacks::total            412605                       # number of writebacks (Count)
system.cpu.dcache.demandMshrHits::cpu.data       125832                       # number of demand (read+write) MSHR hits (Count)
system.cpu.dcache.demandMshrHits::total        125832                       # number of demand (read+write) MSHR hits (Count)
system.cpu.dcache.overallMshrHits::cpu.data       125832                       # number of overall MSHR hits (Count)
system.cpu.dcache.overallMshrHits::total       125832                       # number of overall MSHR hits (Count)
system.cpu.dcache.demandMshrMisses::cpu.data       685760                       # number of demand (read+write) MSHR misses (Count)
system.cpu.dcache.demandMshrMisses::total       685760                       # number of demand (read+write) MSHR misses (Count)
system.cpu.dcache.overallMshrMisses::cpu.data       685760                       # number of overall MSHR misses (Count)
system.cpu.dcache.overallMshrMisses::total       685760                       # number of overall MSHR misses (Count)
system.cpu.dcache.demandMshrMissLatency::cpu.data   9278401500                       # number of demand (read+write) MSHR miss ticks (Tick)
system.cpu.dcache.demandMshrMissLatency::total   9278401500                       # number of demand (read+write) MSHR miss ticks (Tick)
system.cpu.dcache.overallMshrMissLatency::cpu.data   9278401500                       # number of overall MSHR miss ticks (Tick)
system.cpu.dcache.overallMshrMissLatency::total   9278401500                       # number of overall MSHR miss ticks (Tick)
system.cpu.dcache.demandMshrMissRate::cpu.data     0.040873                       # mshr miss ratio for demand accesses (Ratio)
system.cpu.dcache.demandMshrMissRate::total     0.040873                       # mshr miss ratio for demand accesses (Ratio)
system.cpu.dcache.overallMshrMissRate::cpu.data     0.040873                       # mshr miss ratio for overall accesses (Ratio)
system.cpu.dcache.overallMshrMissRate::total     0.040873                       # mshr miss ratio for overall accesses (Ratio)
system.cpu.dcache.demandAvgMshrMissLatency::cpu.data 13530.100181                       # average overall mshr miss latency ((Tick/Count))
system.cpu.dcache.demandAvgMshrMissLatency::total 13530.100181                       # average overall mshr miss latency ((Tick/Count))
system.cpu.dcache.overallAvgMshrMissLatency::cpu.data 13530.100181                       # average overall mshr miss latency ((Tick/Count))
system.cpu.dcache.overallAvgMshrMissLatency::total 13530.100181                       # average overall mshr miss latency ((Tick/Count))
system.cpu.dcache.replacements                 685696                       # number of replacements (Count)
system.cpu.dcache.ReadReq.hits::cpu.data      9681135                       # number of ReadReq hits (Count)
system.cpu.dcache.ReadReq.hits::total         9681135                       # number of ReadReq hits (Count)
system.cpu.dcache.ReadReq.misses::cpu.data       701806                       # number of ReadReq misses (Count)
system.cpu.dcache.ReadReq.misses::total        701806                       # number of ReadReq misses (Count)
system.cpu.dcache.ReadReq.missLatency::cpu.data   9850666500                       # number of ReadReq miss ticks (Tick)
system.cpu.dcache.ReadReq.missLatency::total   9850666500                       # number of ReadReq miss ticks (Tick)
system.cpu.dcache.ReadReq.accesses::cpu.data     10382941                       # number of ReadReq accesses(hits+misses) (Count)
system.cpu.dcache.ReadReq.accesses::total     10382941                       # number of ReadReq accesses(hits+misses) (Count)
system.cpu.dcache.ReadReq.missRate::cpu.data     0.067592                       # miss rate for ReadReq accesses (Ratio)
system.cpu.dcache.ReadReq.missRate::total     0.067592                       # miss rate for ReadReq accesses (Ratio)
system.cpu.dcache.ReadReq.avgMissLatency::cpu.data 14036.167402                       # average ReadReq miss latency ((Tick/Count))
system.cpu.dcache.ReadReq.avgMissLatency::total 14036.167402                       # average ReadReq miss latency ((Tick/Count))
system.cpu.dcache.ReadReq.mshrHits::cpu.data       124898                       # number of ReadReq MSHR hits (Count)
system.cpu.dcache.ReadReq.mshrHits::total       124898                       # number of ReadReq MSHR hits (Count)
system.cpu.dcache.ReadReq.mshrMisses::cpu.data       576908                       # number of ReadReq MSHR misses (Count)
system.cpu.dcache.ReadReq.mshrMisses::total       576908                       # number of ReadReq MSHR misses (Count)
system.cpu.dcache.ReadReq.mshrMissLatency::cpu.data   7518785500                       # number of ReadReq MSHR miss ticks (Tick)
system.cpu.dcache.ReadReq.mshrMissLatency::total   7518785500                       # number of ReadReq MSHR miss ticks (Tick)
system.cpu.dcache.ReadReq.mshrMissRate::cpu.data     0.055563                       # mshr miss rate for ReadReq accesses (Ratio)
system.cpu.dcache.ReadReq.mshrMissRate::total     0.055563                       # mshr miss rate for ReadReq accesses (Ratio)
system.cpu.dcache.ReadReq.avgMshrMissLatency::cpu.data 13032.902127                       # average ReadReq mshr miss latency ((Tick/Count))
system.cpu.dcache.ReadReq.avgMshrMissLatency::total 13032.902127                       # average ReadReq mshr miss latency ((Tick/Count))
system.cpu.dcache.WriteReq.hits::cpu.data      6285142                       # number of WriteReq hits (Count)
system.cpu.dcache.WriteReq.hits::total        6285142                       # number of WriteReq hits (Count)
system.cpu.dcache.WriteReq.misses::cpu.data       109786                       # number of WriteReq misses (Count)
system.cpu.dcache.WriteReq.misses::total       109786                       # number of WriteReq misses (Count)
system.cpu.dcache.WriteReq.missLatency::cpu.data   1894079500                       # number of WriteReq miss ticks (Tick)
system.cpu.dcache.WriteReq.missLatency::total   1894079500                       # number of WriteReq miss ticks (Tick)
system.cpu.dcache.WriteReq.accesses::cpu.data      6394928                       # number of WriteReq accesses(hits+misses) (Count)
system.cpu.dcache.WriteReq.accesses::total      6394928                       # number of WriteReq accesses(hits+misses) (Count)
system.cpu.dcache.WriteReq.missRate::cpu.data     0.017168                       # miss rate for WriteReq accesses (Ratio)
system.cpu.dcache.WriteReq.missRate::total     0.017168                       # miss rate for WriteReq accesses (Ratio)
system.cpu.dcache.WriteReq.avgMissLatency::cpu.data 17252.468439                       # average WriteReq miss latency ((Tick/Count))
system.cpu.dcache.WriteReq.avgMissLatency::total 17252.468439                       # average WriteReq miss latency ((Tick/Count))
system.cpu.dcache.WriteReq.mshrHits::cpu.data          934                       # number of WriteReq MSHR hits (Count)
system.cpu.dcache.WriteReq.mshrHits::total          934                       # number of WriteReq MSHR hits (Count)
system.cpu.dcache.WriteReq.mshrMisses::cpu.data       108852                       # number of WriteReq MSHR misses (Count)
system.cpu.dcache.WriteReq.mshrMisses::total       108852                       # number of WriteReq MSHR misses (Count)
system.cpu.dcache.WriteReq.mshrMissLatency::cpu.data   1759616000                       # number of WriteReq MSHR miss ticks (Tick)
system.cpu.dcache.WriteReq.mshrMissLatency::total   1759616000                       # number of WriteReq MSHR miss ticks (Tick)
system.cpu.dcache.WriteReq.mshrMissRate::cpu.data     0.017022                       # mshr miss rate for WriteReq accesses (Ratio)
system.cpu.dcache.WriteReq.mshrMissRate::total     0.017022                       # mshr miss rate for WriteReq accesses (Ratio)
system.cpu.dcache.WriteReq.avgMshrMissLatency::cpu.data 16165.215155                       # average WriteReq mshr miss latency ((Tick/Count))
system.cpu.dcache.WriteReq.avgMshrMissLatency::total 16165.215155                       # average WriteReq mshr miss latency ((Tick/Count))
system.cpu.dcache.power_state.pwrStateResidencyTicks::UNDEFINED  69988879500                       # Cumulative time (in ticks) in various power states (Tick)
system.cpu.dcache.tags.tagsInUse            63.997151                       # Average ticks per tags in use ((Tick/Count))
system.cpu.dcache.tags.totalRefs             16652037                       # Total number of references to valid blocks. (Count)
system.cpu.dcache.tags.sampledRefs             685760                       # Sample count of references to valid blocks. (Count)
system.cpu.dcache.tags.avgRefs              24.282602                       # Average number of references to valid blocks. ((Count/Count))
system.cpu.dcache.tags.warmupTick            11084000                       # The tick when the warmup percentage was hit. (Tick)
system.cpu.dcache.tags.occupancies::cpu.data    63.997151                       # Average occupied blocks per tick, per requestor ((Count/Tick))
system.cpu.dcache.tags.avgOccs::cpu.data     0.999955                       # Average percentage of cache occupancy ((Ratio/Tick))
system.cpu.dcache.tags.avgOccs::total        0.999955                       # Average percentage of cache occupancy ((Ratio/Tick))
system.cpu.dcache.tags.occupanciesTaskId::1024           64                       # Occupied blocks per task id (Count)
system.cpu.dcache.tags.ageTaskId_1024::0           48                       # Occupied blocks per task id, per block age (Count)
system.cpu.dcache.tags.ageTaskId_1024::1           11                       # Occupied blocks per task id, per block age (Count)
system.cpu.dcache.tags.ageTaskId_1024::2            1                       # Occupied blocks per task id, per block age (Count)
system.cpu.dcache.tags.ageTaskId_1024::3            4                       # Occupied blocks per task id, per block age (Count)
system.cpu.dcache.tags.ratioOccsTaskId::1024            1                       # Ratio of occupied blocks and all blocks, per task id (Ratio)
system.cpu.dcache.tags.tagAccesses           34241498                       # Number of tag accesses (Count)
system.cpu.dcache.tags.dataAccesses          34241498                       # Number of data accesses (Count)
system.cpu.dcache.tags.power_state.pwrStateResidencyTicks::UNDEFINED  69988879500                       # Cumulative time (in ticks) in various power states (Tick)
system.cpu.decode.idleCycles                 65352963                       # Number of cycles decode is idle (Cycle)
system.cpu.decode.blockedCycles              15858678                       # Number of cycles decode is blocked (Cycle)
system.cpu.decode.runCycles                  41613196                       # Number of cycles decode is running (Cycle)
system.cpu.decode.unblockCycles               3617327                       # Number of cycles decode is unblocking (Cycle)
system.cpu.decode.squashCycles                 441899                       # Number of cycles decode is squashing (Cycle)
system.cpu.decode.branchResolved              4224318                       # Number of times decode resolved a branch (Count)
system.cpu.decode.branchMispred                 53969                       # Number of times decode detected a branch misprediction (Count)
system.cpu.decode.decodedInsts               87468665                       # Number of instructions handled by decode (Count)
system.cpu.decode.squashedInsts                107602                       # Number of squashed instructions handled by decode (Count)
system.cpu.fetch.icacheStallCycles           73834382                       # Number of cycles fetch is stalled on an Icache miss (Cycle)
system.cpu.fetch.insts                       48168826                       # Number of instructions fetch has processed (Count)
system.cpu.fetch.branches                    11071560                       # Number of branches that fetch encountered (Count)
system.cpu.fetch.predictedBranches            4860265                       # Number of branches that fetch has predicted taken (Count)
system.cpu.fetch.cycles                      52551784                       # Number of cycles fetch has run and was not squashing or blocked (Cycle)
system.cpu.fetch.squashCycles                  991720                       # Number of cycles fetch has spent squashing (Cycle)
system.cpu.fetch.miscStallCycles                  156                       # Number of cycles fetch has spent waiting on interrupts, or bad addresses, or out of MSHRs (Cycle)
system.cpu.fetch.pendingTrapStallCycles          1881                       # Number of stall cycles due to pending traps (Cycle)
system.cpu.fetch.cacheLines                   8250596                       # Number of cache lines fetched (Count)
system.cpu.fetch.icacheSquashes                135527                       # Number of outstanding Icache misses that were squashed (Count)
system.cpu.fetch.nisnDist::samples          126884063                       # Number of instructions fetched each cycle (Total) (Count)
system.cpu.fetch.nisnDist::mean              0.717474                       # Number of instructions fetched each cycle (Total) (Count)
system.cpu.fetch.nisnDist::stdev             0.942293                       # Number of instructions fetched each cycle (Total) (Count)
system.cpu.fetch.nisnDist::underflows               0      0.00%      0.00% # Number of instructions fetched each cycle (Total) (Count)
system.cpu.fetch.nisnDist::0                 79319276     62.51%     62.51% # Number of instructions fetched each cycle (Total) (Count)
system.cpu.fetch.nisnDist::1                  4093572      3.23%     65.74% # Number of instructions fetched each cycle (Total) (Count)
system.cpu.fetch.nisnDist::2                 43471215     34.26%    100.00% # Number of instructions fetched each cycle (Total) (Count)
system.cpu.fetch.nisnDist::overflows                0      0.00%    100.00% # Number of instructions fetched each cycle (Total) (Count)
system.cpu.fetch.nisnDist::min_value                0                       # Number of instructions fetched each cycle (Total) (Count)
system.cpu.fetch.nisnDist::max_value                2                       # Number of instructions fetched each cycle (Total) (Count)
system.cpu.fetch.nisnDist::total            126884063                       # Number of instructions fetched each cycle (Total) (Count)
system.cpu.fetch.branchRate                  0.079095                       # Number of branch fetches per cycle (Ratio)
system.cpu.fetch.rate                        0.344118                       # Number of inst fetches per cycle ((Count/Cycle))
system.cpu.icache.demandHits::cpu.inst        4905145                       # number of demand (read+write) hits (Count)
system.cpu.icache.demandHits::total           4905145                       # number of demand (read+write) hits (Count)
system.cpu.icache.overallHits::cpu.inst       4905145                       # number of overall hits (Count)
system.cpu.icache.overallHits::total          4905145                       # number of overall hits (Count)
system.cpu.icache.demandMisses::cpu.inst      3345451                       # number of demand (read+write) misses (Count)
system.cpu.icache.demandMisses::total         3345451                       # number of demand (read+write) misses (Count)
system.cpu.icache.overallMisses::cpu.inst      3345451                       # number of overall misses (Count)
system.cpu.icache.overallMisses::total        3345451                       # number of overall misses (Count)
system.cpu.icache.demandMissLatency::cpu.inst  43632724500                       # number of demand (read+write) miss ticks (Tick)
system.cpu.icache.demandMissLatency::total  43632724500                       # number of demand (read+write) miss ticks (Tick)
system.cpu.icache.overallMissLatency::cpu.inst  43632724500                       # number of overall miss ticks (Tick)
system.cpu.icache.overallMissLatency::total  43632724500                       # number of overall miss ticks (Tick)
system.cpu.icache.demandAccesses::cpu.inst      8250596                       # number of demand (read+write) accesses (Count)
system.cpu.icache.demandAccesses::total       8250596                       # number of demand (read+write) accesses (Count)
system.cpu.icache.overallAccesses::cpu.inst      8250596                       # number of overall (read+write) accesses (Count)
system.cpu.icache.overallAccesses::total      8250596                       # number of overall (read+write) accesses (Count)
system.cpu.icache.demandMissRate::cpu.inst     0.405480                       # miss rate for demand accesses (Ratio)
system.cpu.icache.demandMissRate::total      0.405480                       # miss rate for demand accesses (Ratio)
system.cpu.icache.overallMissRate::cpu.inst     0.405480                       # miss rate for overall accesses (Ratio)
system.cpu.icache.overallMissRate::total     0.405480                       # miss rate for overall accesses (Ratio)
system.cpu.icache.demandAvgMissLatency::cpu.inst 13042.404298                       # average overall miss latency in ticks ((Tick/Count))
system.cpu.icache.demandAvgMissLatency::total 13042.404298                       # average overall miss latency in ticks ((Tick/Count))
system.cpu.icache.overallAvgMissLatency::cpu.inst 13042.404298                       # average overall miss latency ((Tick/Count))
system.cpu.icache.overallAvgMissLatency::total 13042.404298                       # average overall miss latency ((Tick/Count))
system.cpu.icache.blockedCycles::no_mshrs            0                       # number of cycles access was blocked (Cycle)
system.cpu.icache.blockedCycles::no_targets            0                       # number of cycles access was blocked (Cycle)
system.cpu.icache.blockedCauses::no_mshrs            0                       # number of times access was blocked (Count)
system.cpu.icache.blockedCauses::no_targets            0                       # number of times access was blocked (Count)
system.cpu.icache.avgBlocked::no_mshrs            nan                       # average number of cycles each access was blocked ((Cycle/Count))
system.cpu.icache.avgBlocked::no_targets          nan                       # average number of cycles each access was blocked ((Cycle/Count))
system.cpu.icache.demandMshrHits::cpu.inst         4418                       # number of demand (read+write) MSHR hits (Count)
system.cpu.icache.demandMshrHits::total          4418                       # number of demand (read+write) MSHR hits (Count)
system.cpu.icache.overallMshrHits::cpu.inst         4418                       # number of overall MSHR hits (Count)
system.cpu.icache.overallMshrHits::total         4418                       # number of overall MSHR hits (Count)
system.cpu.icache.demandMshrMisses::cpu.inst      3341033                       # number of demand (read+write) MSHR misses (Count)
system.cpu.icache.demandMshrMisses::total      3341033                       # number of demand (read+write) MSHR misses (Count)
system.cpu.icache.overallMshrMisses::cpu.inst      3341033                       # number of overall MSHR misses (Count)
system.cpu.icache.overallMshrMisses::total      3341033                       # number of overall MSHR misses (Count)
system.cpu.icache.demandMshrMissLatency::cpu.inst  40248595500                       # number of demand (read+write) MSHR miss ticks (Tick)
system.cpu.icache.demandMshrMissLatency::total  40248595500                       # number of demand (read+write) MSHR miss ticks (Tick)
system.cpu.icache.overallMshrMissLatency::cpu.inst  40248595500                       # number of overall MSHR miss ticks (Tick)
system.cpu.icache.overallMshrMissLatency::total  40248595500                       # number of overall MSHR miss ticks (Tick)
system.cpu.icache.demandMshrMissRate::cpu.inst     0.404944                       # mshr miss ratio for demand accesses (Ratio)
system.cpu.icache.demandMshrMissRate::total     0.404944                       # mshr miss ratio for demand accesses (Ratio)
system.cpu.icache.overallMshrMissRate::cpu.inst     0.404944                       # mshr miss ratio for overall accesses (Ratio)
system.cpu.icache.overallMshrMissRate::total     0.404944                       # mshr miss ratio for overall accesses (Ratio)
system.cpu.icache.demandAvgMshrMissLatency::cpu.inst 12046.751858                       # average overall mshr miss latency ((Tick/Count))
system.cpu.icache.demandAvgMshrMissLatency::total 12046.751858                       # average overall mshr miss latency ((Tick/Count))
system.cpu.icache.overallAvgMshrMissLatency::cpu.inst 12046.751858                       # average overall mshr miss latency ((Tick/Count))
system.cpu.icache.overallAvgMshrMissLatency::total 12046.751858                       # average overall mshr miss latency ((Tick/Count))
system.cpu.icache.replacements                3340969                       # number of replacements (Count)
system.cpu.icache.ReadReq.hits::cpu.inst      4905145                       # number of ReadReq hits (Count)
system.cpu.icache.ReadReq.hits::total         4905145                       # number of ReadReq hits (Count)
system.cpu.icache.ReadReq.misses::cpu.inst      3345451                       # number of ReadReq misses (Count)
system.cpu.icache.ReadReq.misses::total       3345451                       # number of ReadReq misses (Count)
system.cpu.icache.ReadReq.missLatency::cpu.inst  43632724500                       # number of ReadReq miss ticks (Tick)
system.cpu.icache.ReadReq.missLatency::total  43632724500                       # number of ReadReq miss ticks (Tick)
system.cpu.icache.ReadReq.accesses::cpu.inst      8250596                       # number of ReadReq accesses(hits+misses) (Count)
system.cpu.icache.ReadReq.accesses::total      8250596                       # number of ReadReq accesses(hits+misses) (Count)
system.cpu.icache.ReadReq.missRate::cpu.inst     0.405480                       # miss rate for ReadReq accesses (Ratio)
system.cpu.icache.ReadReq.missRate::total     0.405480                       # miss rate for ReadReq accesses (Ratio)
system.cpu.icache.ReadReq.avgMissLatency::cpu.inst 13042.404298                       # average ReadReq miss latency ((Tick/Count))
system.cpu.icache.ReadReq.avgMissLatency::total 13042.404298                       # average ReadReq miss latency ((Tick/Count))
system.cpu.icache.ReadReq.mshrHits::cpu.inst         4418                       # number of ReadReq MSHR hits (Count)
system.cpu.icache.ReadReq.mshrHits::total         4418                       # number of ReadReq MSHR hits (Count)
system.cpu.icache.ReadReq.mshrMisses::cpu.inst      3341033                       # number of ReadReq MSHR misses (Count)
system.cpu.icache.ReadReq.mshrMisses::total      3341033                       # number of ReadReq MSHR misses (Count)
system.cpu.icache.ReadReq.mshrMissLatency::cpu.inst  40248595500                       # number of ReadReq MSHR miss ticks (Tick)
system.cpu.icache.ReadReq.mshrMissLatency::total  40248595500                       # number of ReadReq MSHR miss ticks (Tick)
system.cpu.icache.ReadReq.mshrMissRate::cpu.inst     0.404944                       # mshr miss rate for ReadReq accesses (Ratio)
system.cpu.icache.ReadReq.mshrMissRate::total     0.404944                       # mshr miss rate for ReadReq accesses (Ratio)
system.cpu.icache.ReadReq.avgMshrMissLatency::cpu.inst 12046.751858                       # average ReadReq mshr miss latency ((Tick/Count))
system.cpu.icache.ReadReq.avgMshrMissLatency::total 12046.751858                       # average ReadReq mshr miss latency ((Tick/Count))
system.cpu.icache.power_state.pwrStateResidencyTicks::UNDEFINED  69988879500                       # Cumulative time (in ticks) in various power states (Tick)
system.cpu.icache.tags.tagsInUse            63.995996                       # Average ticks per tags in use ((Tick/Count))
system.cpu.icache.tags.totalRefs              8246178                       # Total number of references to valid blocks. (Count)
system.cpu.icache.tags.sampledRefs            3341033                       # Sample count of references to valid blocks. (Count)
system.cpu.icache.tags.avgRefs               2.468152                       # Average number of references to valid blocks. ((Count/Count))
system.cpu.icache.tags.warmupTick             9249500                       # The tick when the warmup percentage was hit. (Tick)
system.cpu.icache.tags.occupancies::cpu.inst    63.995996                       # Average occupied blocks per tick, per requestor ((Count/Tick))
system.cpu.icache.tags.avgOccs::cpu.inst     0.999937                       # Average percentage of cache occupancy ((Ratio/Tick))
system.cpu.icache.tags.avgOccs::total        0.999937                       # Average percentage of cache occupancy ((Ratio/Tick))
system.cpu.icache.tags.occupanciesTaskId::1024           64                       # Occupied blocks per task id (Count)
system.cpu.icache.tags.ageTaskId_1024::0           62                       # Occupied blocks per task id, per block age (Count)
system.cpu.icache.tags.ageTaskId_1024::1            2                       # Occupied blocks per task id, per block age (Count)
system.cpu.icache.tags.ratioOccsTaskId::1024            1                       # Ratio of occupied blocks and all blocks, per task id (Ratio)
system.cpu.icache.tags.tagAccesses           19842225                       # Number of tag accesses (Count)
system.cpu.icache.tags.dataAccesses          19842225                       # Number of data accesses (Count)
system.cpu.icache.tags.power_state.pwrStateResidencyTicks::UNDEFINED  69988879500                       # Cumulative time (in ticks) in various power states (Tick)
system.cpu.iew.idleCycles                           0                       # Number of cycles IEW is idle (Cycle)
system.cpu.iew.squashCycles                    441899                       # Number of cycles IEW is squashing (Cycle)
system.cpu.iew.blockCycles                      65537                       # Number of cycles IEW is blocking (Cycle)
system.cpu.iew.unblockCycles                    37744                       # Number of cycles IEW is unblocking (Cycle)
system.cpu.iew.dispatchedInsts               85917462                       # Number of instructions dispatched to IQ (Count)
system.cpu.iew.dispSquashedInsts               301179                       # Number of squashed instructions skipped by dispatch (Count)
system.cpu.iew.dispLoadInsts                 10649399                       # Number of dispatched load instructions (Count)
system.cpu.iew.dispStoreInsts                 6525451                       # Number of dispatched store instructions (Count)
system.cpu.iew.dispNonSpecInsts                   111                       # Number of dispatched non-speculative instructions (Count)
system.cpu.iew.iqFullEvents                         1                       # Number of times the IQ has become full, causing a stall (Count)
system.cpu.iew.lsqFullEvents                    37463                       # Number of times the LSQ has become full, causing a stall (Count)
system.cpu.iew.memOrderViolationEvents             15                       # Number of memory order violations (Count)
system.cpu.iew.predictedTakenIncorrect         180015                       # Number of branches that were predicted taken incorrectly (Count)
system.cpu.iew.predictedNotTakenIncorrect       261685                       # Number of branches that were predicted not taken incorrectly (Count)
system.cpu.iew.branchMispredicts               441700                       # Number of branch mispredicts detected at execute (Count)
system.cpu.iew.instsToCommit                 84802034                       # Cumulative count of insts sent to commit (Count)
system.cpu.iew.writebackCount                84785145                       # Cumulative count of insts written-back (Count)
system.cpu.iew.producerInst                  53793230                       # Number of instructions producing a value (Count)
system.cpu.iew.consumerInst                  70710594                       # Number of instructions consuming a value (Count)
system.cpu.iew.wbRate                        0.605704                       # Insts written-back per cycle ((Count/Cycle))
system.cpu.iew.wbFanout                      0.760752                       # Average fanout of values written-back ((Count/Count))
system.cpu.interrupts.clk_domain.clock           8000                       # Clock period in ticks (Tick)
system.cpu.lsq0.forwLoads                      241551                       # Number of loads that had data forwarded from stores (Count)
system.cpu.lsq0.squashedLoads                  317395                       # Number of loads squashed (Count)
system.cpu.lsq0.ignoredResponses                 1113                       # Number of memory responses ignored because the instruction is squashed (Count)
system.cpu.lsq0.memOrderViolation                  15                       # Number of memory ordering violations (Count)
system.cpu.lsq0.squashedStores                 130925                       # Number of stores squashed (Count)
system.cpu.lsq0.rescheduledLoads                 2880                       # Number of loads that were rescheduled (Count)
system.cpu.lsq0.blockedByCache                     17                       # Number of times an access to memory failed due to the cache being blocked (Count)
system.cpu.lsq0.loadToUse::samples           10332004                       # Distribution of cycle latency between the first time a load is issued and its completion (Unspecified)
system.cpu.lsq0.loadToUse::mean              4.850083                       # Distribution of cycle latency between the first time a load is issued and its completion (Unspecified)
system.cpu.lsq0.loadToUse::stdev             8.116229                       # Distribution of cycle latency between the first time a load is issued and its completion (Unspecified)
system.cpu.lsq0.loadToUse::0-9                9627928     93.19%     93.19% # Distribution of cycle latency between the first time a load is issued and its completion (Unspecified)
system.cpu.lsq0.loadToUse::10-19                 2838      0.03%     93.21% # Distribution of cycle latency between the first time a load is issued and its completion (Unspecified)
system.cpu.lsq0.loadToUse::20-29               682697      6.61%     99.82% # Distribution of cycle latency between the first time a load is issued and its completion (Unspecified)
system.cpu.lsq0.loadToUse::30-39                 1072      0.01%     99.83% # Distribution of cycle latency between the first time a load is issued and its completion (Unspecified)
system.cpu.lsq0.loadToUse::40-49                  283      0.00%     99.83% # Distribution of cycle latency between the first time a load is issued and its completion (Unspecified)
system.cpu.lsq0.loadToUse::50-59                 4481      0.04%     99.88% # Distribution of cycle latency between the first time a load is issued and its completion (Unspecified)
system.cpu.lsq0.loadToUse::60-69                  187      0.00%     99.88% # Distribution of cycle latency between the first time a load is issued and its completion (Unspecified)
system.cpu.lsq0.loadToUse::70-79                  134      0.00%     99.88% # Distribution of cycle latency between the first time a load is issued and its completion (Unspecified)
system.cpu.lsq0.loadToUse::80-89                    3      0.00%     99.88% # Distribution of cycle latency between the first time a load is issued and its completion (Unspecified)
system.cpu.lsq0.loadToUse::90-99                    4      0.00%     99.88% # Distribution of cycle latency between the first time a load is issued and its completion (Unspecified)
system.cpu.lsq0.loadToUse::100-109                 16      0.00%     99.88% # Distribution of cycle latency between the first time a load is issued and its completion (Unspecified)
system.cpu.lsq0.loadToUse::110-119                 12      0.00%     99.88% # Distribution of cycle latency between the first time a load is issued and its completion (Unspecified)
system.cpu.lsq0.loadToUse::120-129               1553      0.02%     99.90% # Distribution of cycle latency between the first time a load is issued and its completion (Unspecified)
system.cpu.lsq0.loadToUse::130-139               7617      0.07%     99.97% # Distribution of cycle latency between the first time a load is issued and its completion (Unspecified)
system.cpu.lsq0.loadToUse::140-149                225      0.00%     99.97% # Distribution of cycle latency between the first time a load is issued and its completion (Unspecified)
system.cpu.lsq0.loadToUse::150-159                246      0.00%     99.97% # Distribution of cycle latency between the first time a load is issued and its completion (Unspecified)
system.cpu.lsq0.loadToUse::160-169               1557      0.02%     99.99% # Distribution of cycle latency between the first time a load is issued and its completion (Unspecified)
system.cpu.lsq0.loadToUse::170-179                 48      0.00%     99.99% # Distribution of cycle latency between the first time a load is issued and its completion (Unspecified)
system.cpu.lsq0.loadToUse::180-189                196      0.00%     99.99% # Distribution of cycle latency between the first time a load is issued and its completion (Unspecified)
system.cpu.lsq0.loadToUse::190-199                498      0.00%    100.00% # Distribution of cycle latency between the first time a load is issued and its completion (Unspecified)
system.cpu.lsq0.loadToUse::200-209                 24      0.00%    100.00% # Distribution of cycle latency between the first time a load is issued and its completion (Unspecified)
system.cpu.lsq0.loadToUse::210-219                  6      0.00%    100.00% # Distribution of cycle latency between the first time a load is issued and its completion (Unspecified)
system.cpu.lsq0.loadToUse::220-229                  9      0.00%    100.00% # Distribution of cycle latency between the first time a load is issued and its completion (Unspecified)
system.cpu.lsq0.loadToUse::230-239                  8      0.00%    100.00% # Distribution of cycle latency between the first time a load is issued and its completion (Unspecified)
system.cpu.lsq0.loadToUse::240-249                 12      0.00%    100.00% # Distribution of cycle latency between the first time a load is issued and its completion (Unspecified)
system.cpu.lsq0.loadToUse::250-259                 15      0.00%    100.00% # Distribution of cycle latency between the first time a load is issued and its completion (Unspecified)
system.cpu.lsq0.loadToUse::260-269                  7      0.00%    100.00% # Distribution of cycle latency between the first time a load is issued and its completion (Unspecified)
system.cpu.lsq0.loadToUse::270-279                 11      0.00%    100.00% # Distribution of cycle latency between the first time a load is issued and its completion (Unspecified)
system.cpu.lsq0.loadToUse::280-289                 20      0.00%    100.00% # Distribution of cycle latency between the first time a load is issued and its completion (Unspecified)
system.cpu.lsq0.loadToUse::290-299                 21      0.00%    100.00% # Distribution of cycle latency between the first time a load is issued and its completion (Unspecified)
system.cpu.lsq0.loadToUse::overflows              276      0.00%    100.00% # Distribution of cycle latency between the first time a load is issued and its completion (Unspecified)
system.cpu.lsq0.loadToUse::min_value                2                       # Distribution of cycle latency between the first time a load is issued and its completion (Unspecified)
system.cpu.lsq0.loadToUse::max_value              718                       # Distribution of cycle latency between the first time a load is issued and its completion (Unspecified)
system.cpu.lsq0.loadToUse::total             10332004                       # Distribution of cycle latency between the first time a load is issued and its completion (Unspecified)
system.cpu.mmu.dtb.rdAccesses                10635711                       # TLB accesses on read requests (Count)
system.cpu.mmu.dtb.wrAccesses                 6403841                       # TLB accesses on write requests (Count)
system.cpu.mmu.dtb.rdMisses                      8560                       # TLB misses on read requests (Count)
system.cpu.mmu.dtb.wrMisses                       144                       # TLB misses on write requests (Count)
system.cpu.mmu.dtb.walker.power_state.pwrStateResidencyTicks::UNDEFINED  69988879500                       # Cumulative time (in ticks) in various power states (Tick)
system.cpu.mmu.itb.rdAccesses                       0                       # TLB accesses on read requests (Count)
system.cpu.mmu.itb.wrAccesses                 8250773                       # TLB accesses on write requests (Count)
system.cpu.mmu.itb.rdMisses                         0                       # TLB misses on read requests (Count)
system.cpu.mmu.itb.wrMisses                       352                       # TLB misses on write requests (Count)
system.cpu.mmu.itb.walker.power_state.pwrStateResidencyTicks::UNDEFINED  69988879500                       # Cumulative time (in ticks) in various power states (Tick)
system.cpu.power_state.pwrStateResidencyTicks::ON  69988879500                       # Cumulative time (in ticks) in various power states (Tick)
system.cpu.rename.squashCycles                 441899                       # Number of cycles rename is squashing (Cycle)
system.cpu.rename.idleCycles                 67520008                       # Number of cycles rename is idle (Cycle)
system.cpu.rename.blockCycles                11721688                       # Number of cycles rename is blocking (Cycle)
system.cpu.rename.serializeStallCycles           1721                       # count of cycles rename stalled for serializing inst (Cycle)
system.cpu.rename.runCycles                  41581076                       # Number of cycles rename is running (Cycle)
system.cpu.rename.unblockCycles               5617671                       # Number of cycles rename is unblocking (Cycle)
[...]
system.mem_ctrls.dram.numReads::cpu.inst         1894                       # Number of read requests responded to by this memory (Count)
system.mem_ctrls.dram.numReads::cpu.data        13941                       # Number of read requests responded to by this memory (Count)
system.mem_ctrls.dram.numReads::total           15835                       # Number of read requests responded to by this memory (Count)
system.mem_ctrls.dram.numWrites::writebacks         5575                       # Number of write requests responded to by this memory (Count)
system.mem_ctrls.dram.numWrites::total           5575                       # Number of write requests responded to by this memory (Count)
system.mem_ctrls.dram.bwRead::cpu.inst        1731932                       # Total read bandwidth from this memory ((Byte/Second))
system.mem_ctrls.dram.bwRead::cpu.data       12748082                       # Total read bandwidth from this memory ((Byte/Second))
system.mem_ctrls.dram.bwRead::total          14480015                       # Total read bandwidth from this memory ((Byte/Second))
system.mem_ctrls.dram.bwInstRead::cpu.inst      1731932                       # Instruction read bandwidth from this memory ((Byte/Second))
system.mem_ctrls.dram.bwInstRead::total       1731932                       # Instruction read bandwidth from this memory ((Byte/Second))
system.mem_ctrls.dram.bwWrite::writebacks      5097953                       # Write bandwidth from this memory ((Byte/Second))
system.mem_ctrls.dram.bwWrite::total          5097953                       # Write bandwidth from this memory ((Byte/Second))
system.mem_ctrls.dram.bwTotal::writebacks      5097953                       # Total bandwidth to/from this memory ((Byte/Second))
system.mem_ctrls.dram.bwTotal::cpu.inst       1731932                       # Total bandwidth to/from this memory ((Byte/Second))
system.mem_ctrls.dram.bwTotal::cpu.data      12748082                       # Total bandwidth to/from this memory ((Byte/Second))
system.mem_ctrls.dram.bwTotal::total         19577967                       # Total bandwidth to/from this memory ((Byte/Second))
system.mem_ctrls.dram.readBursts                15207                       # Number of DRAM read bursts (Count)
system.mem_ctrls.dram.writeBursts                5546                       # Number of DRAM write bursts (Count)
system.mem_ctrls.dram.perBankRdBursts::0         1022                       # Per bank write bursts (Count)
system.mem_ctrls.dram.perBankRdBursts::1         1657                       # Per bank write bursts (Count)
system.mem_ctrls.dram.perBankRdBursts::2         1399                       # Per bank write bursts (Count)
system.mem_ctrls.dram.perBankRdBursts::3          828                       # Per bank write bursts (Count)
system.mem_ctrls.dram.perBankRdBursts::4          904                       # Per bank write bursts (Count)
system.mem_ctrls.dram.perBankRdBursts::5         1080                       # Per bank write bursts (Count)
system.mem_ctrls.dram.perBankRdBursts::6          823                       # Per bank write bursts (Count)
system.mem_ctrls.dram.perBankRdBursts::7          731                       # Per bank write bursts (Count)
system.mem_ctrls.dram.perBankRdBursts::8          613                       # Per bank write bursts (Count)
system.mem_ctrls.dram.perBankRdBursts::9          689                       # Per bank write bursts (Count)
system.mem_ctrls.dram.perBankRdBursts::10          885                       # Per bank write bursts (Count)
system.mem_ctrls.dram.perBankRdBursts::11          614                       # Per bank write bursts (Count)
system.mem_ctrls.dram.perBankRdBursts::12         1502                       # Per bank write bursts (Count)
system.mem_ctrls.dram.perBankRdBursts::13         1229                       # Per bank write bursts (Count)
system.mem_ctrls.dram.perBankRdBursts::14          453                       # Per bank write bursts (Count)
system.mem_ctrls.dram.perBankRdBursts::15          778                       # Per bank write bursts (Count)
system.mem_ctrls.dram.perBankWrBursts::0          256                       # Per bank write bursts (Count)
system.mem_ctrls.dram.perBankWrBursts::1         1121                       # Per bank write bursts (Count)
system.mem_ctrls.dram.perBankWrBursts::2          928                       # Per bank write bursts (Count)
system.mem_ctrls.dram.perBankWrBursts::3          239                       # Per bank write bursts (Count)
system.mem_ctrls.dram.perBankWrBursts::4          251                       # Per bank write bursts (Count)
system.mem_ctrls.dram.perBankWrBursts::5          358                       # Per bank write bursts (Count)
system.mem_ctrls.dram.perBankWrBursts::6          167                       # Per bank write bursts (Count)
system.mem_ctrls.dram.perBankWrBursts::7          128                       # Per bank write bursts (Count)
system.mem_ctrls.dram.perBankWrBursts::8          135                       # Per bank write bursts (Count)
system.mem_ctrls.dram.perBankWrBursts::9          128                       # Per bank write bursts (Count)
system.mem_ctrls.dram.perBankWrBursts::10          128                       # Per bank write bursts (Count)
system.mem_ctrls.dram.perBankWrBursts::11          128                       # Per bank write bursts (Count)
system.mem_ctrls.dram.perBankWrBursts::12          979                       # Per bank write bursts (Count)
system.mem_ctrls.dram.perBankWrBursts::13          362                       # Per bank write bursts (Count)
system.mem_ctrls.dram.perBankWrBursts::14           66                       # Per bank write bursts (Count)
system.mem_ctrls.dram.perBankWrBursts::15          172                       # Per bank write bursts (Count)
system.mem_ctrls.dram.totQLat               165223250                       # Total ticks spent queuing (Tick)
system.mem_ctrls.dram.totBusLat              76035000                       # Total ticks spent in databus transfers (Tick)
system.mem_ctrls.dram.totMemAccLat          450354500                       # Total ticks spent from burst creation until serviced by the DRAM (Tick)
system.mem_ctrls.dram.avgQLat                10864.95                       # Average queueing delay per DRAM burst ((Tick/Count))
system.mem_ctrls.dram.avgBusLat               5000.00                       # Average bus latency per DRAM burst ((Tick/Count))
system.mem_ctrls.dram.avgMemAccLat           29614.95                       # Average memory access latency per DRAM burst ((Tick/Count))
system.mem_ctrls.dram.readRowHits                9518                       # Number of row buffer hits during reads (Count)
system.mem_ctrls.dram.writeRowHits               4887                       # Number of row buffer hits during writes (Count)
system.mem_ctrls.dram.readRowHitRate            62.59                       # Row buffer hit rate for reads (Ratio)
system.mem_ctrls.dram.writeRowHitRate           88.12                       # Row buffer hit rate for writes (Ratio)
system.mem_ctrls.dram.bytesPerActivate::samples         6335                       # Bytes accessed per row activation (Byte)
system.mem_ctrls.dram.bytesPerActivate::mean   208.962273                       # Bytes accessed per row activation (Byte)
system.mem_ctrls.dram.bytesPerActivate::gmean   120.348692                       # Bytes accessed per row activation (Byte)
system.mem_ctrls.dram.bytesPerActivate::stdev   271.619495                       # Bytes accessed per row activation (Byte)
system.mem_ctrls.dram.bytesPerActivate::0-127         3939     62.18%     62.18% # Bytes accessed per row activation (Byte)
system.mem_ctrls.dram.bytesPerActivate::128-255          863     13.62%     75.80% # Bytes accessed per row activation (Byte)
system.mem_ctrls.dram.bytesPerActivate::256-383          393      6.20%     82.00% # Bytes accessed per row activation (Byte)
system.mem_ctrls.dram.bytesPerActivate::384-511          268      4.23%     86.24% # Bytes accessed per row activation (Byte)
system.mem_ctrls.dram.bytesPerActivate::512-639          201      3.17%     89.41% # Bytes accessed per row activation (Byte)
system.mem_ctrls.dram.bytesPerActivate::640-767          116      1.83%     91.24% # Bytes accessed per row activation (Byte)
system.mem_ctrls.dram.bytesPerActivate::768-895          113      1.78%     93.02% # Bytes accessed per row activation (Byte)
system.mem_ctrls.dram.bytesPerActivate::896-1023           88      1.39%     94.41% # Bytes accessed per row activation (Byte)
system.mem_ctrls.dram.bytesPerActivate::1024-1151          354      5.59%    100.00% # Bytes accessed per row activation (Byte)
system.mem_ctrls.dram.bytesPerActivate::total         6335                       # Bytes accessed per row activation (Byte)
system.mem_ctrls.dram.bytesRead                973248                       # Total bytes read (Byte)
system.mem_ctrls.dram.bytesWritten             354944                       # Total bytes written (Byte)
system.mem_ctrls.dram.avgRdBW               13.905752                       # Average DRAM read bandwidth in MiBytes/s ((Byte/Second))
system.mem_ctrls.dram.avgWrBW                5.071434                       # Average DRAM write bandwidth in MiBytes/s ((Byte/Second))
system.mem_ctrls.dram.peakBW                 12800.00                       # Theoretical peak bandwidth in MiByte/s ((Byte/Second))
system.mem_ctrls.dram.busUtil                    0.15                       # Data bus utilization in percentage (Ratio)
system.mem_ctrls.dram.busUtilRead                0.11                       # Data bus utilization in percentage for reads (Ratio)
system.mem_ctrls.dram.busUtilWrite               0.04                       # Data bus utilization in percentage for writes (Ratio)
system.mem_ctrls.dram.pageHitRate               69.41                       # Row buffer hit rate, read and write combined (Ratio)
system.mem_ctrls.dram.power_state.pwrStateResidencyTicks::UNDEFINED  69988879500                       # Cumulative time (in ticks) in various power states (Tick)
system.mem_ctrls.dram.rank0.actEnergy        25218480                       # Energy for activate commands per rank (pJ) (Joule)
system.mem_ctrls.dram.rank0.preEnergy        13377375                       # Energy for precharge commands per rank (pJ) (Joule)
system.mem_ctrls.dram.rank0.readEnergy       60290160                       # Energy for read commands per rank (pJ) (Joule)
system.mem_ctrls.dram.rank0.writeEnergy      17998560                       # Energy for write commands per rank (pJ) (Joule)
system.mem_ctrls.dram.rank0.refreshEnergy 5524384320.000001                       # Energy for refresh commands per rank (pJ) (Joule)
system.mem_ctrls.dram.rank0.actBackEnergy   4344740640                       # Energy for active background per rank (pJ) (Joule)
system.mem_ctrls.dram.rank0.preBackEnergy  23217000960                       # Energy for precharge background per rank (pJ) (Joule)
system.mem_ctrls.dram.rank0.actPowerDownEnergy            0                       # Energy for active power-down per rank (pJ) (Joule)
system.mem_ctrls.dram.rank0.prePowerDownEnergy            0                       # Energy for precharge power-down per rank (pJ) (Joule)
system.mem_ctrls.dram.rank0.selfRefreshEnergy            0                       # Energy for self refresh per rank (pJ) (Joule)
system.mem_ctrls.dram.rank0.totalEnergy   33203010495                       # Total energy per rank (pJ) (Joule)
system.mem_ctrls.dram.rank0.averagePower   474.404087                       # Core power per rank (mW) (Watt)
system.mem_ctrls.dram.rank0.totalIdleTime            0                       # Total Idle time Per DRAM Rank (Tick)
system.mem_ctrls.dram.rank0.pwrStateTime::IDLE  60312618750                       # Time in different power states (Tick)
system.mem_ctrls.dram.rank0.pwrStateTime::REF   2336880000                       # Time in different power states (Tick)
system.mem_ctrls.dram.rank0.pwrStateTime::SREF            0                       # Time in different power states (Tick)
system.mem_ctrls.dram.rank0.pwrStateTime::PRE_PDN            0                       # Time in different power states (Tick)
system.mem_ctrls.dram.rank0.pwrStateTime::ACT   7339380750                       # Time in different power states (Tick)
system.mem_ctrls.dram.rank0.pwrStateTime::ACT_PDN            0                       # Time in different power states (Tick)
system.mem_ctrls.dram.rank1.actEnergy        20106240                       # Energy for activate commands per rank (pJ) (Joule)
system.mem_ctrls.dram.rank1.preEnergy        10663950                       # Energy for precharge commands per rank (pJ) (Joule)
system.mem_ctrls.dram.rank1.readEnergy       48287820                       # Energy for read commands per rank (pJ) (Joule)
system.mem_ctrls.dram.rank1.writeEnergy      10951560                       # Energy for write commands per rank (pJ) (Joule)
system.mem_ctrls.dram.rank1.refreshEnergy 5524384320.000001                       # Energy for refresh commands per rank (pJ) (Joule)
system.mem_ctrls.dram.rank1.actBackEnergy   4602194250                       # Energy for active background per rank (pJ) (Joule)
system.mem_ctrls.dram.rank1.preBackEnergy  23000197920                       # Energy for precharge background per rank (pJ) (Joule)
system.mem_ctrls.dram.rank1.actPowerDownEnergy            0                       # Energy for active power-down per rank (pJ) (Joule)
system.mem_ctrls.dram.rank1.prePowerDownEnergy            0                       # Energy for precharge power-down per rank (pJ) (Joule)
system.mem_ctrls.dram.rank1.selfRefreshEnergy            0                       # Energy for self refresh per rank (pJ) (Joule)
system.mem_ctrls.dram.rank1.totalEnergy   33216786060                       # Total energy per rank (pJ) (Joule)
system.mem_ctrls.dram.rank1.averagePower   474.600912                       # Core power per rank (mW) (Watt)
system.mem_ctrls.dram.rank1.totalIdleTime            0                       # Total Idle time Per DRAM Rank (Tick)
system.mem_ctrls.dram.rank1.pwrStateTime::IDLE  59746735000                       # Time in different power states (Tick)
system.mem_ctrls.dram.rank1.pwrStateTime::REF   2336880000                       # Time in different power states (Tick)
system.mem_ctrls.dram.rank1.pwrStateTime::SREF            0                       # Time in different power states (Tick)
system.mem_ctrls.dram.rank1.pwrStateTime::PRE_PDN            0                       # Time in different power states (Tick)
system.mem_ctrls.dram.rank1.pwrStateTime::ACT   7905264500                       # Time in different power states (Tick)
system.mem_ctrls.dram.rank1.pwrStateTime::ACT_PDN            0                       # Time in different power states (Tick)
system.mem_ctrls.power_state.pwrStateResidencyTicks::UNDEFINED  69988879500                       # Cumulative time (in ticks) in various power states (Tick)
system.membus.transDist::ReadResp               10743                       # Transaction distribution (Count)
system.membus.transDist::WritebackDirty          5575                       # Transaction distribution (Count)
system.membus.transDist::CleanEvict              9745                       # Transaction distribution (Count)
system.membus.transDist::ReadExReq               5092                       # Transaction distribution (Count)
system.membus.transDist::ReadExResp              5092                       # Transaction distribution (Count)
system.membus.transDist::ReadSharedReq          10743                       # Transaction distribution (Count)
system.membus.pktCount_system.l2cache.mem_side_port::system.mem_ctrls.port        46990                       # Packet count per connected requestor and responder (Count)
system.membus.pktCount_system.l2cache.mem_side_port::total        46990                       # Packet count per connected requestor and responder (Count)
system.membus.pktCount::total                   46990                       # Packet count per connected requestor and responder (Count)
system.membus.pktSize_system.l2cache.mem_side_port::system.mem_ctrls.port      1370240                       # Cumulative packet size per connected requestor and responder (Byte)
system.membus.pktSize_system.l2cache.mem_side_port::total      1370240                       # Cumulative packet size per connected requestor and responder (Byte)
system.membus.pktSize::total                  1370240                       # Cumulative packet size per connected requestor and responder (Byte)
system.membus.snoops                                0                       # Total snoops (Count)
system.membus.snoopTraffic                          0                       # Total snoop traffic (Byte)
system.membus.snoopFanout::samples              15835                       # Request fanout histogram (Count)
system.membus.snoopFanout::mean                     0                       # Request fanout histogram (Count)
system.membus.snoopFanout::stdev                    0                       # Request fanout histogram (Count)
system.membus.snoopFanout::underflows               0      0.00%      0.00% # Request fanout histogram (Count)
system.membus.snoopFanout::0                    15835    100.00%    100.00% # Request fanout histogram (Count)
system.membus.snoopFanout::1                        0      0.00%    100.00% # Request fanout histogram (Count)
system.membus.snoopFanout::overflows                0      0.00%    100.00% # Request fanout histogram (Count)
system.membus.snoopFanout::min_value                0                       # Request fanout histogram (Count)
system.membus.snoopFanout::max_value                0                       # Request fanout histogram (Count)
system.membus.snoopFanout::total                15835                       # Request fanout histogram (Count)
system.membus.power_state.pwrStateResidencyTicks::UNDEFINED  69988879500                       # Cumulative time (in ticks) in various power states (Tick)
system.membus.reqLayer2.occupancy            26727500                       # Layer occupancy (ticks) (Tick)
system.membus.reqLayer2.utilization               0.0                       # Layer utilization (Ratio)
system.membus.respLayer1.occupancy           42208500                       # Layer occupancy (ticks) (Tick)
system.membus.respLayer1.utilization              0.0                       # Layer utilization (Ratio)
system.membus.snoop_filter.totRequests          31155                       # Total number of requests made to the snoop filter. (Count)
system.membus.snoop_filter.hitSingleRequests        15320                       # Number of requests hitting in the snoop filter with a single holder of the requested data. (Count)
system.membus.snoop_filter.hitMultiRequests            0                       # Number of requests hitting in the snoop filter with multiple (>1) holders of the requested data. (Count)
system.membus.snoop_filter.totSnoops                0                       # Total number of snoops made to the snoop filter. (Count)
system.membus.snoop_filter.hitSingleSnoops            0                       # Number of snoops hitting in the snoop filter with a single holder of the requested data. (Count)
system.membus.snoop_filter.hitMultiSnoops            0                       # Number of snoops hitting in the snoop filter with multiple (>1) holders of the requested data. (Count)
system.workload.inst.arm                            0                       # number of arm instructions executed (Count)
system.workload.inst.quiesce                        0                       # number of quiesce instructions executed (Count)

---------- End Simulation Statistics   ----------
