
---------- Begin Simulation Statistics ----------
simSeconds                                   0.049790                       # Number of seconds simulated (Second)
simTicks                                  49789726000                       # Number of ticks simulated (Tick)
finalTick                                 49789726000                       # Number of ticks from beginning of simulation (restored from checkpoints and never reset) (Tick)
simFreq                                  1000000000000                       # The number of ticks per simulated second ((Tick/Second))
hostSeconds                                    166.64                       # Real time elapsed on the host (Second)
hostTickRate                                298790531                       # The number of ticks simulated per host second (ticks/s) ((Tick/Second))
hostMemory                                     814216                       # Number of bytes of host memory used (Byte)
simInsts                                     30462670                       # Number of instructions simulated (Count)
simOps                                       58827232                       # Number of ops (including micro ops) simulated (Count)
hostInstRate                                   182808                       # Simulator instruction rate (inst/s) ((Count/Second))
hostOpRate                                     353025                       # Simulator op (including micro ops) rate (op/s) ((Count/Second))
system.clk_domain.clock                           500                       # Clock period in ticks (Tick)
system.clk_domain.voltage_domain.voltage            1                       # Voltage in Volts (Volt)
system.cpu.numCycles                         99579453                       # Number of cpu cycles simulated (Cycle)
system.cpu.numWorkItemsStarted                      0                       # Number of work items this cpu started (Count)
system.cpu.numWorkItemsCompleted                    0                       # Number of work items this cpu completed (Count)
system.cpu.instsAdded                        60610711                       # Number of instructions added to the IQ (excludes non-spec) (Count)
system.cpu.nonSpecInstsAdded                      247                       # Number of non-speculative instructions added to the IQ (Count)
system.cpu.instsIssued                       60212059                       # Number of instructions issued (Count)
system.cpu.squashedInstsIssued                  57254                       # Number of squashed instructions issued (Count)
system.cpu.squashedInstsExamined              1783720                       # Number of squashed instructions iterated over during squash; mainly for profiling (Count)
system.cpu.squashedOperandsExamined           2446896                       # Number of squashed operands that are examined and possibly removed from graph (Count)
system.cpu.squashedNonSpecRemoved                 121                       # Number of squashed non-spec instructions that were removed (Count)
system.cpu.numIssuedDist::samples            89609871                       # Number of insts issued each cycle (Count)
system.cpu.numIssuedDist::mean               0.671936                       # Number of insts issued each cycle (Count)
system.cpu.numIssuedDist::stdev              0.857302                       # Number of insts issued each cycle (Count)
system.cpu.numIssuedDist::underflows                0      0.00%      0.00% # Number of insts issued each cycle (Count)
system.cpu.numIssuedDist::0                  52451204     58.53%     58.53% # Number of insts issued each cycle (Count)
system.cpu.numIssuedDist::1                  14105275     15.74%     74.27% # Number of insts issued each cycle (Count)
system.cpu.numIssuedDist::2                  23053392     25.73%    100.00% # Number of insts issued each cycle (Count)
system.cpu.numIssuedDist::overflows                 0      0.00%    100.00% # Number of insts issued each cycle (Count)
system.cpu.numIssuedDist::min_value                 0                       # Number of insts issued each cycle (Count)
system.cpu.numIssuedDist::max_value                 2                       # Number of insts issued each cycle (Count)
system.cpu.numIssuedDist::total              89609871                       # Number of insts issued each cycle (Count)
system.cpu.statFuBusy::No_OpClass                   0                       # attempts to use FU when none available (Count)
system.cpu.statFuBusy::IntAlu                       0                       # attempts to use FU when none available (Count)
system.cpu.statFuBusy::IntMult                      0                       # attempts to use FU when none available (Count)
system.cpu.statFuBusy::IntDiv                       0                       # attempts to use FU when none available (Count)
system.cpu.statFuBusy::FloatAdd                     0                       # attempts to use FU when none available (Count)
system.cpu.statFuBusy::FloatCmp                     0                       # attempts to use FU when none available (Count)
system.cpu.statFuBusy::FloatCvt                     0                       # attempts to use FU when none available (Count)
system.cpu.statFuBusy::FloatMult                    0                       # attempts to use FU when none available (Count)
system.cpu.statFuBusy::FloatMultAcc                 0                       # attempts to use FU when none available (Count)
system.cpu.statFuBusy::FloatDiv                     0                       # attempts to use FU when none available (Count)
system.cpu.statFuBusy::FloatMisc                    0                       # attempts to use FU when none available (Count)
system.cpu.statFuBusy::FloatSqrt                    0                       # attempts to use FU when none available (Count)
system.cpu.statFuBusy::SimdAdd                      0                       # attempts to use FU when none available (Count)
system.cpu.statFuBusy::SimdAddAcc                   0                       # attempts to use FU when none available (Count)
system.cpu.statFuBusy::SimdAlu                      0                       # attempts to use FU when none available (Count)
system.cpu.statFuBusy::SimdCmp                      0                       # attempts to use FU when none available (Count)
system.cpu.statFuBusy::SimdCvt                      0                       # attempts to use FU when none available (Count)
system.cpu.statFuBusy::SimdMisc                     0                       # attempts to use FU when none available (Count)
system.cpu.statFuBusy::SimdMult                     0                       # attempts to use FU when none available (Count)
system.cpu.statFuBusy::SimdMultAcc                  0                       # attempts to use FU when none available (Count)
system.cpu.statFuBusy::SimdShift                    0                       # attempts to use FU when none available (Count)
system.cpu.statFuBusy::SimdShiftAcc                 0                       # attempts to use FU when none available (Count)
system.cpu.statFuBusy::SimdDiv                      0                       # attempts to use FU when none available (Count)
system.cpu.statFuBusy::SimdSqrt                     0                       # attempts to use FU when none available (Count)
system.cpu.statFuBusy::SimdFloatAdd                 0                       # attempts to use FU when none available (Count)
system.cpu.statFuBusy::SimdFloatAlu                 0                       # attempts to use FU when none available (Count)
system.cpu.statFuBusy::SimdFloatCmp                 0                       # attempts to use FU when none available (Count)
system.cpu.statFuBusy::SimdFloatCvt                 0                       # attempts to use FU when none available (Count)
system.cpu.statFuBusy::SimdFloatDiv                 0                       # attempts to use FU when none available (Count)
system.cpu.statFuBusy::SimdFloatMisc                0                       # attempts to use FU when none available (Count)
system.cpu.statFuBusy::SimdFloatMult                0                       # attempts to use FU when none available (Count)
system.cpu.statFuBusy::SimdFloatMultAcc             0                       # attempts to use FU when none available (Count)
system.cpu.statFuBusy::SimdFloatSqrt                0                       # attempts to use FU when none available (Count)
system.cpu.statFuBusy::SimdReduceAdd                0                       # attempts to use FU when none available (Count)
system.cpu.statFuBusy::SimdReduceAlu                0                       # attempts to use FU when none available (Count)
system.cpu.statFuBusy::SimdReduceCmp                0                       # attempts to use FU when none available (Count)
system.cpu.statFuBusy::SimdFloatReduceAdd            0                       # attempts to use FU when none available (Count)
system.cpu.statFuBusy::SimdFloatReduceCmp            0                       # attempts to use FU when none available (Count)
system.cpu.statFuBusy::SimdAes                      0                       # attempts to use FU when none available (Count)
system.cpu.statFuBusy::SimdAesMix                   0                       # attempts to use FU when none available (Count)
system.cpu.statFuBusy::SimdSha1Hash                 0                       # attempts to use FU when none available (Count)
system.cpu.statFuBusy::SimdSha1Hash2                0                       # attempts to use FU when none available (Count)
system.cpu.statFuBusy::SimdSha256Hash               0                       # attempts to use FU when none available (Count)
system.cpu.statFuBusy::SimdSha256Hash2              0                       # attempts to use FU when none available (Count)
system.cpu.statFuBusy::SimdShaSigma2                0                       # attempts to use FU when none available (Count)
system.cpu.statFuBusy::SimdShaSigma3                0                       # attempts to use FU when none available (Count)
system.cpu.statFuBusy::SimdPredAlu                  0                       # attempts to use FU when none available (Count)
system.cpu.statFuBusy::MemRead                      0                       # attempts to use FU when none available (Count)
system.cpu.statFuBusy::MemWrite                     0                       # attempts to use FU when none available (Count)
system.cpu.statFuBusy::FloatMemRead                 0                       # attempts to use FU when none available (Count)
system.cpu.statFuBusy::FloatMemWrite                0                       # attempts to use FU when none available (Count)
system.cpu.statFuBusy::IprAccess                    0                       # attempts to use FU when none available (Count)
system.cpu.statFuBusy::InstPrefetch                 0                       # attempts to use FU when none available (Count)
system.cpu.statIssuedInstType_0::No_OpClass       207835      0.35%      0.35% # Number of instructions issued per FU type, per thread (Count)
system.cpu.statIssuedInstType_0::IntAlu      46419980     77.09%     77.44% # Number of instructions issued per FU type, per thread (Count)
system.cpu.statIssuedInstType_0::IntMult       151602      0.25%     77.69% # Number of instructions issued per FU type, per thread (Count)
system.cpu.statIssuedInstType_0::IntDiv        494249      0.82%     78.51% # Number of instructions issued per FU type, per thread (Count)
system.cpu.statIssuedInstType_0::FloatAdd       219158      0.36%     78.88% # Number of instructions issued per FU type, per thread (Count)
system.cpu.statIssuedInstType_0::FloatCmp            0      0.00%     78.88% # Number of instructions issued per FU type, per thread (Count)
system.cpu.statIssuedInstType_0::FloatCvt          224      0.00%     78.88% # Number of instructions issued per FU type, per thread (Count)
system.cpu.statIssuedInstType_0::FloatMult            0      0.00%     78.88% # Number of instructions issued per FU type, per thread (Count)
system.cpu.statIssuedInstType_0::FloatMultAcc            0      0.00%     78.88% # Number of instructions issued per FU type, per thread (Count)
system.cpu.statIssuedInstType_0::FloatDiv            0      0.00%     78.88% # Number of instructions issued per FU type, per thread (Count)
system.cpu.statIssuedInstType_0::FloatMisc            0      0.00%     78.88% # Number of instructions issued per FU type, per thread (Count)
system.cpu.statIssuedInstType_0::FloatSqrt            0      0.00%     78.88% # Number of instructions issued per FU type, per thread (Count)
system.cpu.statIssuedInstType_0::SimdAdd            0      0.00%     78.88% # Number of instructions issued per FU type, per thread (Count)
system.cpu.statIssuedInstType_0::SimdAddAcc            0      0.00%     78.88% # Number of instructions issued per FU type, per thread (Count)
system.cpu.statIssuedInstType_0::SimdAlu        57373      0.10%     78.97% # Number of instructions issued per FU type, per thread (Count)
system.cpu.statIssuedInstType_0::SimdCmp            0      0.00%     78.97% # Number of instructions issued per FU type, per thread (Count)
system.cpu.statIssuedInstType_0::SimdCvt       117433      0.20%     79.17% # Number of instructions issued per FU type, per thread (Count)
system.cpu.statIssuedInstType_0::SimdMisc       326026      0.54%     79.71% # Number of instructions issued per FU type, per thread (Count)
system.cpu.statIssuedInstType_0::SimdMult            0      0.00%     79.71% # Number of instructions issued per FU type, per thread (Count)
system.cpu.statIssuedInstType_0::SimdMultAcc            0      0.00%     79.71% # Number of instructions issued per FU type, per thread (Count)
system.cpu.statIssuedInstType_0::SimdShift            0      0.00%     79.71% # Number of instructions issued per FU type, per thread (Count)
system.cpu.statIssuedInstType_0::SimdShiftAcc            0      0.00%     79.71% # Number of instructions issued per FU type, per thread (Count)
system.cpu.statIssuedInstType_0::SimdDiv            0      0.00%     79.71% # Number of instructions issued per FU type, per thread (Count)
system.cpu.statIssuedInstType_0::SimdSqrt            0      0.00%     79.71% # Number of instructions issued per FU type, per thread (Count)
system.cpu.statIssuedInstType_0::SimdFloatAdd        65376      0.11%     79.82% # Number of instructions issued per FU type, per thread (Count)
system.cpu.statIssuedInstType_0::SimdFloatAlu            0      0.00%     79.82% # Number of instructions issued per FU type, per thread (Count)
system.cpu.statIssuedInstType_0::SimdFloatCmp            0      0.00%     79.82% # Number of instructions issued per FU type, per thread (Count)
system.cpu.statIssuedInstType_0::SimdFloatCvt        12079      0.02%     79.84% # Number of instructions issued per FU type, per thread (Count)
system.cpu.statIssuedInstType_0::SimdFloatDiv           12      0.00%     79.84% # Number of instructions issued per FU type, per thread (Count)
system.cpu.statIssuedInstType_0::SimdFloatMisc            0      0.00%     79.84% # Number of instructions issued per FU type, per thread (Count)
system.cpu.statIssuedInstType_0::SimdFloatMult        20422      0.03%     79.87% # Number of instructions issued per FU type, per thread (Count)
system.cpu.statIssuedInstType_0::SimdFloatMultAcc            0      0.00%     79.87% # Number of instructions issued per FU type, per thread (Count)
system.cpu.statIssuedInstType_0::SimdFloatSqrt            0      0.00%     79.87% # Number of instructions issued per FU type, per thread (Count)
system.cpu.statIssuedInstType_0::SimdReduceAdd            0      0.00%     79.87% # Number of instructions issued per FU type, per thread (Count)
system.cpu.statIssuedInstType_0::SimdReduceAlu            0      0.00%     79.87% # Number of instructions issued per FU type, per thread (Count)
system.cpu.statIssuedInstType_0::SimdReduceCmp            0      0.00%     79.87% # Number of instructions issued per FU type, per thread (Count)
system.cpu.statIssuedInstType_0::SimdFloatReduceAdd            0      0.00%     79.87% # Number of instructions issued per FU type, per thread (Count)
system.cpu.statIssuedInstType_0::SimdFloatReduceCmp            0      0.00%     79.87% # Number of instructions issued per FU type, per thread (Count)
system.cpu.statIssuedInstType_0::SimdAes            0      0.00%     79.87% # Number of instructions issued per FU type, per thread (Count)
system.cpu.statIssuedInstType_0::SimdAesMix            0      0.00%     79.87% # Number of instructions issued per FU type, per thread (Count)
system.cpu.statIssuedInstType_0::SimdSha1Hash            0      0.00%     79.87% # Number of instructions issued per FU type, per thread (Count)
system.cpu.statIssuedInstType_0::SimdSha1Hash2            0      0.00%     79.87% # Number of instructions issued per FU type, per thread (Count)
system.cpu.statIssuedInstType_0::SimdSha256Hash            0      0.00%     79.87% # Number of instructions issued per FU type, per thread (Count)
system.cpu.statIssuedInstType_0::SimdSha256Hash2            0      0.00%     79.87% # Number of instructions issued per FU type, per thread (Count)
system.cpu.statIssuedInstType_0::SimdShaSigma2            0      0.00%     79.87% # Number of instructions issued per FU type, per thread (Count)
system.cpu.statIssuedInstType_0::SimdShaSigma3            0      0.00%     79.87% # Number of instructions issued per FU type, per thread (Count)
system.cpu.statIssuedInstType_0::SimdPredAlu            0      0.00%     79.87% # Number of instructions issued per FU type, per thread (Count)
system.cpu.statIssuedInstType_0::MemRead      7100251     11.79%     91.66% # Number of instructions issued per FU type, per thread (Count)
system.cpu.statIssuedInstType_0::MemWrite      4673875      7.76%     99.43% # Number of instructions issued per FU type, per thread (Count)
system.cpu.statIssuedInstType_0::FloatMemRead       227800      0.38%     99.80% # Number of instructions issued per FU type, per thread (Count)
system.cpu.statIssuedInstType_0::FloatMemWrite       118364      0.20%    100.00% # Number of instructions issued per FU type, per thread (Count)
system.cpu.statIssuedInstType_0::IprAccess            0      0.00%    100.00% # Number of instructions issued per FU type, per thread (Count)
system.cpu.statIssuedInstType_0::InstPrefetch            0      0.00%    100.00% # Number of instructions issued per FU type, per thread (Count)
system.cpu.statIssuedInstType_0::total       60212059                       # Number of instructions issued per FU type, per thread (Count)
system.cpu.issueRate                         0.604663                       # Inst issue rate ((Count/Cycle))
system.cpu.fuBusy                                   0                       # FU busy when requested (Count)
system.cpu.fuBusyRate                               0                       # FU busy rate (busy events/executed inst) ((Count/Count))
system.cpu.intInstQueueReads                207586565                       # Number of integer instruction queue reads (Count)
system.cpu.intInstQueueWrites                61122966                       # Number of integer instruction queue writes (Count)
system.cpu.intInstQueueWakeupAccesses        58390091                       # Number of integer instruction queue wakeup accesses (Count)
system.cpu.fpInstQueueReads                   2504678                       # Number of floating instruction queue reads (Count)
system.cpu.fpInstQueueWrites                  1271777                       # Number of floating instruction queue writes (Count)
system.cpu.fpInstQueueWakeupAccesses          1248273                       # Number of floating instruction queue wakeup accesses (Count)
system.cpu.vecInstQueueReads                        0                       # Number of vector instruction queue reads (Count)
system.cpu.vecInstQueueWrites                       0                       # Number of vector instruction queue writes (Count)
system.cpu.vecInstQueueWakeupAccesses               0                       # Number of vector instruction queue wakeup accesses (Count)
system.cpu.intAluAccesses                    58751886                       # Number of integer alu accesses (Count)
system.cpu.fpAluAccesses                      1252338                       # Number of floating point alu accesses (Count)
system.cpu.vecAluAccesses                           0                       # Number of vector alu accesses (Count)
system.cpu.numInsts                          59803828                       # Number of executed instructions (Count)
system.cpu.numLoadInsts                       7290429                       # Number of load instructions executed (Count)
system.cpu.numSquashedInsts                    408231                       # Number of squashed instructions skipped in execute (Count)
system.cpu.numSwp                                   0                       # Number of swp insts executed (Count)
system.cpu.numNop                                   0                       # Number of nop insts executed (Count)
system.cpu.numRefs                           12065675                       # Number of memory reference insts executed (Count)
system.cpu.numBranches                        6308514                       # Number of branches executed (Count)
system.cpu.numStoreInsts                      4775246                       # Number of stores executed (Count)
system.cpu.numRate                           0.600564                       # Inst execution rate ((Count/Cycle))
system.cpu.timesIdled                         2184911                       # Number of times that the entire CPU went into an idle state and unscheduled itself (Count)
system.cpu.idleCycles                         9969582                       # Total number of cycles that the CPU has spent unscheduled due to idling (Cycle)
system.cpu.committedInsts                    30462670                       # Number of Instructions Simulated (Count)
system.cpu.committedOps                      58827232                       # Number of Ops (including micro ops) Simulated (Count)
system.cpu.cpi                               3.268901                       # CPI: Cycles Per Instruction ((Cycle/Count))
system.cpu.totalCpi                          3.268901                       # CPI: Total CPI of All Threads ((Cycle/Count))
system.cpu.ipc                               0.305913                       # IPC: Instructions Per Cycle ((Count/Cycle))
system.cpu.totalIpc                          0.305913                       # IPC: Total IPC of All Threads ((Count/Cycle))
system.cpu.intRegfileReads                   79544417                       # Number of integer regfile reads (Count)
system.cpu.intRegfileWrites                  43900467                       # Number of integer regfile writes (Count)
system.cpu.fpRegfileReads                     1597610                       # Number of floating regfile reads (Count)
system.cpu.fpRegfileWrites                    1004525                       # Number of floating regfile writes (Count)
system.cpu.ccRegfileReads                    35257766                       # number of cc regfile reads (Count)
system.cpu.ccRegfileWrites                   19275887                       # number of cc regfile writes (Count)
system.cpu.miscRegfileReads                  24314638                       # number of misc regfile reads (Count)
system.cpu.miscRegfileWrites                      126                       # number of misc regfile writes (Count)
system.cpu.MemDepUnit__0.insertedLoads        7352235                       # Number of loads inserted to the mem dependence unit. (Count)
system.cpu.MemDepUnit__0.insertedStores       4815129                       # Number of stores inserted to the mem dependence unit. (Count)
system.cpu.MemDepUnit__0.conflictingLoads        14960                       # Number of conflicting loads. (Count)
system.cpu.MemDepUnit__0.conflictingStores         4884                       # Number of conflicting stores. (Count)
system.cpu.MemDepUnit__1.insertedLoads              0                       # Number of loads inserted to the mem dependence unit. (Count)
system.cpu.MemDepUnit__1.insertedStores             0                       # Number of stores inserted to the mem dependence unit. (Count)
system.cpu.MemDepUnit__1.conflictingLoads            0                       # Number of conflicting loads. (Count)
system.cpu.MemDepUnit__1.conflictingStores            0                       # Number of conflicting stores. (Count)
system.cpu.MemDepUnit__2.insertedLoads              0                       # Number of loads inserted to the mem dependence unit. (Count)
system.cpu.MemDepUnit__2.insertedStores             0                       # Number of stores inserted to the mem dependence unit. (Count)
system.cpu.MemDepUnit__2.conflictingLoads            0                       # Number of conflicting loads. (Count)
system.cpu.MemDepUnit__2.conflictingStores            0                       # Number of conflicting stores. (Count)
system.cpu.MemDepUnit__3.insertedLoads              0                       # Number of loads inserted to the mem dependence unit. (Count)
system.cpu.MemDepUnit__3.insertedStores             0                       # Number of stores inserted to the mem dependence unit. (Count)
system.cpu.MemDepUnit__3.conflictingLoads            0                       # Number of conflicting loads. (Count)
system.cpu.MemDepUnit__3.conflictingStores            0                       # Number of conflicting stores. (Count)
system.cpu.branchPred.lookups                 6860231                       # Number of BP lookups (Count)
system.cpu.branchPred.condPredicted           5153405                       # Number of conditional branches predicted (Count)
system.cpu.branchPred.condIncorrect            401389                       # Number of conditional branches incorrect (Count)
system.cpu.branchPred.BTBLookups              3416298                       # Number of BTB lookups (Count)
system.cpu.branchPred.BTBHits                 3184503                       # Number of BTB hits (Count)
system.cpu.branchPred.BTBHitRatio            0.932150                       # BTB Hit Ratio (Ratio)
system.cpu.branchPred.RASUsed                  471705                       # Number of times the RAS was used to get a target. (Count)
system.cpu.branchPred.RASIncorrect                  0                       # Number of incorrect RAS predictions. (Count)
system.cpu.branchPred.indirectLookups           86674                       # Number of indirect predictor lookups. (Count)
system.cpu.branchPred.indirectHits              86144                       # Number of indirect target hits. (Count)
system.cpu.branchPred.indirectMisses              530                       # Number of indirect misses. (Count)
system.cpu.branchPred.indirectMispredicted          280                       # Number of mispredicted indirect branches. (Count)
system.cpu.commit.commitSquashedInsts         1782182                       # The number of squashed insts skipped by commit (Count)
system.cpu.commit.commitNonSpecStalls             126                       # The number of times commit has been forced to stall to communicate backwards (Count)
system.cpu.commit.branchMispredicts            355515                       # The number of times a branch was mispredicted (Count)
system.cpu.commit.numCommittedDist::samples     89237081                       # Number of insts commited each cycle (Count)
system.cpu.commit.numCommittedDist::mean     0.659224                       # Number of insts commited each cycle (Count)
system.cpu.commit.numCommittedDist::stdev     0.868238                       # Number of insts commited each cycle (Count)
system.cpu.commit.numCommittedDist::underflows            0      0.00%      0.00% # Number of insts commited each cycle (Count)
system.cpu.commit.numCommittedDist::0        54021488     60.54%     60.54% # Number of insts commited each cycle (Count)
system.cpu.commit.numCommittedDist::1        11603954     13.00%     73.54% # Number of insts commited each cycle (Count)
system.cpu.commit.numCommittedDist::2        23611639     26.46%    100.00% # Number of insts commited each cycle (Count)
system.cpu.commit.numCommittedDist::overflows            0      0.00%    100.00% # Number of insts commited each cycle (Count)
system.cpu.commit.numCommittedDist::min_value            0                       # Number of insts commited each cycle (Count)
system.cpu.commit.numCommittedDist::max_value            2                       # Number of insts commited each cycle (Count)
system.cpu.commit.numCommittedDist::total     89237081                       # Number of insts commited each cycle (Count)
system.cpu.commit.instsCommitted             30462670                       # Number of instructions committed (Count)
system.cpu.commit.opsCommitted               58827232                       # Number of ops (including micro ops) committed (Count)
system.cpu.commit.memRefs                    11830908                       # Number of memory references committed (Count)
system.cpu.commit.loads                       7096780                       # Number of loads committed (Count)
system.cpu.commit.amos                              0                       # Number of atomic instructions committed (Count)
system.cpu.commit.membars                           0                       # Number of memory barriers committed (Count)
system.cpu.commit.branches                    6282141                       # Number of branches committed (Count)
system.cpu.commit.vectorInstructions                0                       # Number of committed Vector instructions. (Count)
system.cpu.commit.floating                    1247669                       # Number of committed floating point instructions. (Count)
system.cpu.commit.integer                    57680870                       # Number of committed integer instructions. (Count)
system.cpu.commit.functionCalls                459883                       # Number of function calls committed. (Count)
system.cpu.commit.committedInstType_0::No_OpClass       194948      0.33%      0.33% # Class of committed instruction (Count)
system.cpu.commit.committedInstType_0::IntAlu     45363194     77.11%     77.44% # Class of committed instruction (Count)
system.cpu.commit.committedInstType_0::IntMult       151591      0.26%     77.70% # Class of committed instruction (Count)
system.cpu.commit.committedInstType_0::IntDiv       469068      0.80%     78.50% # Class of committed instruction (Count)
system.cpu.commit.committedInstType_0::FloatAdd       219012      0.37%     78.87% # Class of committed instruction (Count)
system.cpu.commit.committedInstType_0::FloatCmp            0      0.00%     78.87% # Class of committed instruction (Count)
system.cpu.commit.committedInstType_0::FloatCvt          224      0.00%     78.87% # Class of committed instruction (Count)
system.cpu.commit.committedInstType_0::FloatMult            0      0.00%     78.87% # Class of committed instruction (Count)
system.cpu.commit.committedInstType_0::FloatMultAcc            0      0.00%     78.87% # Class of committed instruction (Count)
system.cpu.commit.committedInstType_0::FloatDiv            0      0.00%     78.87% # Class of committed instruction (Count)
system.cpu.commit.committedInstType_0::FloatMisc            0      0.00%     78.87% # Class of committed instruction (Count)
system.cpu.commit.committedInstType_0::FloatSqrt            0      0.00%     78.87% # Class of committed instruction (Count)
system.cpu.commit.committedInstType_0::SimdAdd            0      0.00%     78.87% # Class of committed instruction (Count)
system.cpu.commit.committedInstType_0::SimdAddAcc            0      0.00%     78.87% # Class of committed instruction (Count)
system.cpu.commit.committedInstType_0::SimdAlu        57372      0.10%     78.97% # Class of committed instruction (Count)
system.cpu.commit.committedInstType_0::SimdCmp            0      0.00%     78.97% # Class of committed instruction (Count)
system.cpu.commit.committedInstType_0::SimdCvt       117034      0.20%     79.17% # Class of committed instruction (Count)
system.cpu.commit.committedInstType_0::SimdMisc       326024      0.55%     79.72% # Class of committed instruction (Count)
system.cpu.commit.committedInstType_0::SimdMult            0      0.00%     79.72% # Class of committed instruction (Count)
system.cpu.commit.committedInstType_0::SimdMultAcc            0      0.00%     79.72% # Class of committed instruction (Count)
system.cpu.commit.committedInstType_0::SimdShift            0      0.00%     79.72% # Class of committed instruction (Count)
system.cpu.commit.committedInstType_0::SimdShiftAcc            0      0.00%     79.72% # Class of committed instruction (Count)
system.cpu.commit.committedInstType_0::SimdDiv            0      0.00%     79.72% # Class of committed instruction (Count)
system.cpu.commit.committedInstType_0::SimdSqrt            0      0.00%     79.72% # Class of committed instruction (Count)
system.cpu.commit.committedInstType_0::SimdFloatAdd        65376      0.11%     79.83% # Class of committed instruction (Count)
system.cpu.commit.committedInstType_0::SimdFloatAlu            0      0.00%     79.83% # Class of committed instruction (Count)
system.cpu.commit.committedInstType_0::SimdFloatCmp            0      0.00%     79.83% # Class of committed instruction (Count)
system.cpu.commit.committedInstType_0::SimdFloatCvt        12047      0.02%     79.85% # Class of committed instruction (Count)
system.cpu.commit.committedInstType_0::SimdFloatDiv           12      0.00%     79.85% # Class of committed instruction (Count)
system.cpu.commit.committedInstType_0::SimdFloatMisc            0      0.00%     79.85% # Class of committed instruction (Count)
system.cpu.commit.committedInstType_0::SimdFloatMult        20422      0.03%     79.89% # Class of committed instruction (Count)
system.cpu.commit.committedInstType_0::SimdFloatMultAcc            0      0.00%     79.89% # Class of committed instruction (Count)
system.cpu.commit.committedInstType_0::SimdFloatSqrt            0      0.00%     79.89% # Class of committed instruction (Count)
system.cpu.commit.committedInstType_0::SimdReduceAdd            0      0.00%     79.89% # Class of committed instruction (Count)
system.cpu.commit.committedInstType_0::SimdReduceAlu            0      0.00%     79.89% # Class of committed instruction (Count)
system.cpu.commit.committedInstType_0::SimdReduceCmp            0      0.00%     79.89% # Class of committed instruction (Count)
system.cpu.commit.committedInstType_0::SimdFloatReduceAdd            0      0.00%     79.89% # Class of committed instruction (Count)
system.cpu.commit.committedInstType_0::SimdFloatReduceCmp            0      0.00%     79.89% # Class of committed instruction (Count)
system.cpu.commit.committedInstType_0::SimdAes            0      0.00%     79.89% # Class of committed instruction (Count)
system.cpu.commit.committedInstType_0::SimdAesMix            0      0.00%     79.89% # Class of committed instruction (Count)
system.cpu.commit.committedInstType_0::SimdSha1Hash            0      0.00%     79.89% # Class of committed instruction (Count)
system.cpu.commit.committedInstType_0::SimdSha1Hash2            0      0.00%     79.89% # Class of committed instruction (Count)
system.cpu.commit.committedInstType_0::SimdSha256Hash            0      0.00%     79.89% # Class of committed instruction (Count)
system.cpu.commit.committedInstType_0::SimdSha256Hash2            0      0.00%     79.89% # Class of committed instruction (Count)
system.cpu.commit.committedInstType_0::SimdShaSigma2            0      0.00%     79.89% # Class of committed instruction (Count)
system.cpu.commit.committedInstType_0::SimdShaSigma3            0      0.00%     79.89% # Class of committed instruction (Count)
system.cpu.commit.committedInstType_0::SimdPredAlu            0      0.00%     79.89% # Class of committed instruction (Count)
system.cpu.commit.committedInstType_0::MemRead      6872972     11.68%     91.57% # Class of committed instruction (Count)
system.cpu.commit.committedInstType_0::MemWrite      4615861      7.85%     99.42% # Class of committed instruction (Count)
system.cpu.commit.committedInstType_0::FloatMemRead       223808      0.38%     99.80% # Class of committed instruction (Count)
system.cpu.commit.committedInstType_0::FloatMemWrite       118267      0.20%    100.00% # Class of committed instruction (Count)
system.cpu.commit.committedInstType_0::IprAccess            0      0.00%    100.00% # Class of committed instruction (Count)
system.cpu.commit.committedInstType_0::InstPrefetch            0      0.00%    100.00% # Class of committed instruction (Count)
system.cpu.commit.committedInstType_0::total     58827232                       # Class of committed instruction (Count)
system.cpu.commit.commitEligibleSamples      23611639                       # number cycles where commit BW limit reached (Cycle)
system.cpu.dcache.demandHits::cpu.data       11497722                       # number of demand (read+write) hits (Count)
system.cpu.dcache.demandHits::total          11497722                       # number of demand (read+write) hits (Count)
system.cpu.dcache.overallHits::cpu.data      11497722                       # number of overall hits (Count)
system.cpu.dcache.overallHits::total         11497722                       # number of overall hits (Count)
system.cpu.dcache.demandMisses::cpu.data       373292                       # number of demand (read+write) misses (Count)
system.cpu.dcache.demandMisses::total          373292                       # number of demand (read+write) misses (Count)
system.cpu.dcache.overallMisses::cpu.data       373292                       # number of overall misses (Count)
system.cpu.dcache.overallMisses::total         373292                       # number of overall misses (Count)
system.cpu.dcache.demandMissLatency::cpu.data   5533051000                       # number of demand (read+write) miss ticks (Tick)
system.cpu.dcache.demandMissLatency::total   5533051000                       # number of demand (read+write) miss ticks (Tick)
system.cpu.dcache.overallMissLatency::cpu.data   5533051000                       # number of overall miss ticks (Tick)
system.cpu.dcache.overallMissLatency::total   5533051000                       # number of overall miss ticks (Tick)
system.cpu.dcache.demandAccesses::cpu.data     11871014                       # number of demand (read+write) accesses (Count)
system.cpu.dcache.demandAccesses::total      11871014                       # number of demand (read+write) accesses (Count)
system.cpu.dcache.overallAccesses::cpu.data     11871014                       # number of overall (read+write) accesses (Count)
system.cpu.dcache.overallAccesses::total     11871014                       # number of overall (read+write) accesses (Count)
system.cpu.dcache.demandMissRate::cpu.data     0.031446                       # miss rate for demand accesses (Ratio)
system.cpu.dcache.demandMissRate::total      0.031446                       # miss rate for demand accesses (Ratio)
system.cpu.dcache.overallMissRate::cpu.data     0.031446                       # miss rate for overall accesses (Ratio)
system.cpu.dcache.overallMissRate::total     0.031446                       # miss rate for overall accesses (Ratio)
system.cpu.dcache.demandAvgMissLatency::cpu.data 14822.313363                       # average overall miss latency in ticks ((Tick/Count))
system.cpu.dcache.demandAvgMissLatency::total 14822.313363                       # average overall miss latency in ticks ((Tick/Count))
system.cpu.dcache.overallAvgMissLatency::cpu.data 14822.313363                       # average overall miss latency ((Tick/Count))
system.cpu.dcache.overallAvgMissLatency::total 14822.313363                       # average overall miss latency ((Tick/Count))
system.cpu.dcache.blockedCycles::no_mshrs         2364                       # number of cycles access was blocked (Cycle)
system.cpu.dcache.blockedCycles::no_targets            0                       # number of cycles access was blocked (Cycle)
system.cpu.dcache.blockedCauses::no_mshrs           76                       # number of times access was blocked (Count)
system.cpu.dcache.blockedCauses::no_targets            0                       # number of times access was blocked (Count)
system.cpu.dcache.avgBlocked::no_mshrs      31.105263                       # average number of cycles each access was blocked ((Cycle/Count))
system.cpu.dcache.avgBlocked::no_targets          nan                       # average number of cycles each access was blocked ((Cycle/Count))
system.cpu.dcache.writebacks::writebacks       144180                       # number of writebacks (Count)
system.cpu.dcache.writebacks::total            144180                       # number of writebacks (Count)
system.cpu.dcache.demandMshrHits::cpu.data        52622                       # number of demand (read+write) MSHR hits (Count)
system.cpu.dcache.demandMshrHits::total         52622                       # number of demand (read+write) MSHR hits (Count)
system.cpu.dcache.overallMshrHits::cpu.data        52622                       # number of overall MSHR hits (Count)
system.cpu.dcache.overallMshrHits::total        52622                       # number of overall MSHR hits (Count)
system.cpu.dcache.demandMshrMisses::cpu.data       320670                       # number of demand (read+write) MSHR misses (Count)
system.cpu.dcache.demandMshrMisses::total       320670                       # number of demand (read+write) MSHR misses (Count)
system.cpu.dcache.overallMshrMisses::cpu.data       320670                       # number of overall MSHR misses (Count)
system.cpu.dcache.overallMshrMisses::total       320670                       # number of overall MSHR misses (Count)
system.cpu.dcache.demandMshrMissLatency::cpu.data   4470694500                       # number of demand (read+write) MSHR miss ticks (Tick)
system.cpu.dcache.demandMshrMissLatency::total   4470694500                       # number of demand (read+write) MSHR miss ticks (Tick)
system.cpu.dcache.overallMshrMissLatency::cpu.data   4470694500                       # number of overall MSHR miss ticks (Tick)
system.cpu.dcache.overallMshrMissLatency::total   4470694500                       # number of overall MSHR miss ticks (Tick)
system.cpu.dcache.demandMshrMissRate::cpu.data     0.027013                       # mshr miss ratio for demand accesses (Ratio)
system.cpu.dcache.demandMshrMissRate::total     0.027013                       # mshr miss ratio for demand accesses (Ratio)
system.cpu.dcache.overallMshrMissRate::cpu.data     0.027013                       # mshr miss ratio for overall accesses (Ratio)
system.cpu.dcache.overallMshrMissRate::total     0.027013                       # mshr miss ratio for overall accesses (Ratio)
system.cpu.dcache.demandAvgMshrMissLatency::cpu.data 13941.729816                       # average overall mshr miss latency ((Tick/Count))
system.cpu.dcache.demandAvgMshrMissLatency::total 13941.729816                       # average overall mshr miss latency ((Tick/Count))
system.cpu.dcache.overallAvgMshrMissLatency::cpu.data 13941.729816                       # average overall mshr miss latency ((Tick/Count))
system.cpu.dcache.overallAvgMshrMissLatency::total 13941.729816                       # average overall mshr miss latency ((Tick/Count))
system.cpu.dcache.replacements                 320606                       # number of replacements (Count)
system.cpu.dcache.ReadReq.hits::cpu.data      6851198                       # number of ReadReq hits (Count)
system.cpu.dcache.ReadReq.hits::total         6851198                       # number of ReadReq hits (Count)
system.cpu.dcache.ReadReq.misses::cpu.data       285070                       # number of ReadReq misses (Count)
system.cpu.dcache.ReadReq.misses::total        285070                       # number of ReadReq misses (Count)
system.cpu.dcache.ReadReq.missLatency::cpu.data   4171657000                       # number of ReadReq miss ticks (Tick)
system.cpu.dcache.ReadReq.missLatency::total   4171657000                       # number of ReadReq miss ticks (Tick)
system.cpu.dcache.ReadReq.accesses::cpu.data      7136268                       # number of ReadReq accesses(hits+misses) (Count)
system.cpu.dcache.ReadReq.accesses::total      7136268                       # number of ReadReq accesses(hits+misses) (Count)
system.cpu.dcache.ReadReq.missRate::cpu.data     0.039947                       # miss rate for ReadReq accesses (Ratio)
system.cpu.dcache.ReadReq.missRate::total     0.039947                       # miss rate for ReadReq accesses (Ratio)
system.cpu.dcache.ReadReq.avgMissLatency::cpu.data 14633.798716                       # average ReadReq miss latency ((Tick/Count))
system.cpu.dcache.ReadReq.avgMissLatency::total 14633.798716                       # average ReadReq miss latency ((Tick/Count))
system.cpu.dcache.ReadReq.mshrHits::cpu.data        52619                       # number of ReadReq MSHR hits (Count)
system.cpu.dcache.ReadReq.mshrHits::total        52619                       # number of ReadReq MSHR hits (Count)
system.cpu.dcache.ReadReq.mshrMisses::cpu.data       232451                       # number of ReadReq MSHR misses (Count)
system.cpu.dcache.ReadReq.mshrMisses::total       232451                       # number of ReadReq MSHR misses (Count)
system.cpu.dcache.ReadReq.mshrMissLatency::cpu.data   3197782500                       # number of ReadReq MSHR miss ticks (Tick)
system.cpu.dcache.ReadReq.mshrMissLatency::total   3197782500                       # number of ReadReq MSHR miss ticks (Tick)
system.cpu.dcache.ReadReq.mshrMissRate::cpu.data     0.032573                       # mshr miss rate for ReadReq accesses (Ratio)
system.cpu.dcache.ReadReq.mshrMissRate::total     0.032573                       # mshr miss rate for ReadReq accesses (Ratio)
system.cpu.dcache.ReadReq.avgMshrMissLatency::cpu.data 13756.802509                       # average ReadReq mshr miss latency ((Tick/Count))
system.cpu.dcache.ReadReq.avgMshrMissLatency::total 13756.802509                       # average ReadReq mshr miss latency ((Tick/Count))
system.cpu.dcache.WriteReq.hits::cpu.data      4646524                       # number of WriteReq hits (Count)
system.cpu.dcache.WriteReq.hits::total        4646524                       # number of WriteReq hits (Count)
system.cpu.dcache.WriteReq.misses::cpu.data        88222                       # number of WriteReq misses (Count)
system.cpu.dcache.WriteReq.misses::total        88222                       # number of WriteReq misses (Count)
system.cpu.dcache.WriteReq.missLatency::cpu.data   1361394000                       # number of WriteReq miss ticks (Tick)
system.cpu.dcache.WriteReq.missLatency::total   1361394000                       # number of WriteReq miss ticks (Tick)
system.cpu.dcache.WriteReq.accesses::cpu.data      4734746                       # number of WriteReq accesses(hits+misses) (Count)
system.cpu.dcache.WriteReq.accesses::total      4734746                       # number of WriteReq accesses(hits+misses) (Count)
system.cpu.dcache.WriteReq.missRate::cpu.data     0.018633                       # miss rate for WriteReq accesses (Ratio)
system.cpu.dcache.WriteReq.missRate::total     0.018633                       # miss rate for WriteReq accesses (Ratio)
system.cpu.dcache.WriteReq.avgMissLatency::cpu.data 15431.457006                       # average WriteReq miss latency ((Tick/Count))
system.cpu.dcache.WriteReq.avgMissLatency::total 15431.457006                       # average WriteReq miss latency ((Tick/Count))
system.cpu.dcache.WriteReq.mshrHits::cpu.data            3                       # number of WriteReq MSHR hits (Count)
system.cpu.dcache.WriteReq.mshrHits::total            3                       # number of WriteReq MSHR hits (Count)
system.cpu.dcache.WriteReq.mshrMisses::cpu.data        88219                       # number of WriteReq MSHR misses (Count)
system.cpu.dcache.WriteReq.mshrMisses::total        88219                       # number of WriteReq MSHR misses (Count)
system.cpu.dcache.WriteReq.mshrMissLatency::cpu.data   1272912000                       # number of WriteReq MSHR miss ticks (Tick)
system.cpu.dcache.WriteReq.mshrMissLatency::total   1272912000                       # number of WriteReq MSHR miss ticks (Tick)
system.cpu.dcache.WriteReq.mshrMissRate::cpu.data     0.018632                       # mshr miss rate for WriteReq accesses (Ratio)
system.cpu.dcache.WriteReq.mshrMissRate::total     0.018632                       # mshr miss rate for WriteReq accesses (Ratio)
system.cpu.dcache.WriteReq.avgMshrMissLatency::cpu.data 14429.000555                       # average WriteReq mshr miss latency ((Tick/Count))
system.cpu.dcache.WriteReq.avgMshrMissLatency::total 14429.000555                       # average WriteReq mshr miss latency ((Tick/Count))
system.cpu.dcache.power_state.pwrStateResidencyTicks::UNDEFINED  49789726000                       # Cumulative time (in ticks) in various power states (Tick)
system.cpu.dcache.tags.tagsInUse            63.995797                       # Average ticks per tags in use ((Tick/Count))
system.cpu.dcache.tags.totalRefs             11818392                       # Total number of references to valid blocks. (Count)
system.cpu.dcache.tags.sampledRefs             320670                       # Sample count of references to valid blocks. (Count)
system.cpu.dcache.tags.avgRefs              36.855309                       # Average number of references to valid blocks. ((Count/Count))
system.cpu.dcache.tags.warmupTick            11140500                       # The tick when the warmup percentage was hit. (Tick)
system.cpu.dcache.tags.occupancies::cpu.data    63.995797                       # Average occupied blocks per tick, per requestor ((Count/Tick))
system.cpu.dcache.tags.avgOccs::cpu.data     0.999934                       # Average percentage of cache occupancy ((Ratio/Tick))
system.cpu.dcache.tags.avgOccs::total        0.999934                       # Average percentage of cache occupancy ((Ratio/Tick))
system.cpu.dcache.tags.occupanciesTaskId::1024           64                       # Occupied blocks per task id (Count)
system.cpu.dcache.tags.ageTaskId_1024::0           48                       # Occupied blocks per task id, per block age (Count)
system.cpu.dcache.tags.ageTaskId_1024::1            9                       # Occupied blocks per task id, per block age (Count)
system.cpu.dcache.tags.ageTaskId_1024::2            5                       # Occupied blocks per task id, per block age (Count)
system.cpu.dcache.tags.ageTaskId_1024::3            2                       # Occupied blocks per task id, per block age (Count)
system.cpu.dcache.tags.ratioOccsTaskId::1024            1                       # Ratio of occupied blocks and all blocks, per task id (Ratio)
system.cpu.dcache.tags.tagAccesses           24062698                       # Number of tag accesses (Count)
system.cpu.dcache.tags.dataAccesses          24062698                       # Number of data accesses (Count)
system.cpu.dcache.tags.power_state.pwrStateResidencyTicks::UNDEFINED  49789726000                       # Cumulative time (in ticks) in various power states (Tick)
system.cpu.decode.idleCycles                 51209140                       # Number of cycles decode is idle (Cycle)
system.cpu.decode.blockedCycles               5948600                       # Number of cycles decode is blocked (Cycle)
system.cpu.decode.runCycles                  29501150                       # Number of cycles decode is running (Cycle)
system.cpu.decode.unblockCycles               2595182                       # Number of cycles decode is unblocking (Cycle)
system.cpu.decode.squashCycles                 355799                       # Number of cycles decode is squashing (Cycle)
system.cpu.decode.branchResolved              3068531                       # Number of times decode resolved a branch (Count)
system.cpu.decode.branchMispred                 46115                       # Number of times decode detected a branch misprediction (Count)
system.cpu.decode.decodedInsts               61831385                       # Number of instructions handled by decode (Count)
system.cpu.decode.squashedInsts                 79170                       # Number of squashed instructions handled by decode (Count)
system.cpu.fetch.icacheStallCycles           53549225                       # Number of cycles fetch is stalled on an Icache miss (Cycle)
system.cpu.fetch.insts                       33201609                       # Number of instructions fetch has processed (Count)
system.cpu.fetch.branches                     6860231                       # Number of branches that fetch encountered (Count)
system.cpu.fetch.predictedBranches            3742352                       # Number of branches that fetch has predicted taken (Count)
system.cpu.fetch.cycles                      35655491                       # Number of cycles fetch has run and was not squashing or blocked (Cycle)
system.cpu.fetch.squashCycles                  803806                       # Number of cycles fetch has spent squashing (Cycle)
system.cpu.fetch.miscStallCycles                  266                       # Number of cycles fetch has spent waiting on interrupts, or bad addresses, or out of MSHRs (Cycle)
system.cpu.fetch.pendingTrapStallCycles          2986                       # Number of stall cycles due to pending traps (Cycle)
system.cpu.fetch.cacheLines                   5086781                       # Number of cache lines fetched (Count)
system.cpu.fetch.icacheSquashes                169065                       # Number of outstanding Icache misses that were squashed (Count)
system.cpu.fetch.nisnDist::samples           89609871                       # Number of instructions fetched each cycle (Total) (Count)
system.cpu.fetch.nisnDist::mean              0.714759                       # Number of instructions fetched each cycle (Total) (Count)
system.cpu.fetch.nisnDist::stdev             0.939881                       # Number of instructions fetched each cycle (Total) (Count)
system.cpu.fetch.nisnDist::underflows               0      0.00%      0.00% # Number of instructions fetched each cycle (Total) (Count)
system.cpu.fetch.nisnDist::0                 56005233     62.50%     62.50% # Number of instructions fetched each cycle (Total) (Count)
system.cpu.fetch.nisnDist::1                  3159805      3.53%     66.03% # Number of instructions fetched each cycle (Total) (Count)
system.cpu.fetch.nisnDist::2                 30444833     33.97%    100.00% # Number of instructions fetched each cycle (Total) (Count)
system.cpu.fetch.nisnDist::overflows                0      0.00%    100.00% # Number of instructions fetched each cycle (Total) (Count)
system.cpu.fetch.nisnDist::min_value                0                       # Number of instructions fetched each cycle (Total) (Count)
system.cpu.fetch.nisnDist::max_value                2                       # Number of instructions fetched each cycle (Total) (Count)
system.cpu.fetch.nisnDist::total             89609871                       # Number of instructions fetched each cycle (Total) (Count)
system.cpu.fetch.branchRate                  0.068892                       # Number of branch fetches per cycle (Ratio)
system.cpu.fetch.rate                        0.333418                       # Number of inst fetches per cycle ((Count/Cycle))
system.cpu.icache.demandHits::cpu.inst        2552248                       # number of demand (read+write) hits (Count)
system.cpu.icache.demandHits::total           2552248                       # number of demand (read+write) hits (Count)
system.cpu.icache.overallHits::cpu.inst       2552248                       # number of overall hits (Count)
system.cpu.icache.overallHits::total          2552248                       # number of overall hits (Count)
system.cpu.icache.demandMisses::cpu.inst      2534533                       # number of demand (read+write) misses (Count)
system.cpu.icache.demandMisses::total         2534533                       # number of demand (read+write) misses (Count)
system.cpu.icache.overallMisses::cpu.inst      2534533                       # number of overall misses (Count)
system.cpu.icache.overallMisses::total        2534533                       # number of overall misses (Count)
system.cpu.icache.demandMissLatency::cpu.inst  32927820500                       # number of demand (read+write) miss ticks (Tick)
system.cpu.icache.demandMissLatency::total  32927820500                       # number of demand (read+write) miss ticks (Tick)
system.cpu.icache.overallMissLatency::cpu.inst  32927820500                       # number of overall miss ticks (Tick)
system.cpu.icache.overallMissLatency::total  32927820500                       # number of overall miss ticks (Tick)
system.cpu.icache.demandAccesses::cpu.inst      5086781                       # number of demand (read+write) accesses (Count)
system.cpu.icache.demandAccesses::total       5086781                       # number of demand (read+write) accesses (Count)
system.cpu.icache.overallAccesses::cpu.inst      5086781                       # number of overall (read+write) accesses (Count)
system.cpu.icache.overallAccesses::total      5086781                       # number of overall (read+write) accesses (Count)
system.cpu.icache.demandMissRate::cpu.inst     0.498259                       # miss rate for demand accesses (Ratio)
system.cpu.icache.demandMissRate::total      0.498259                       # miss rate for demand accesses (Ratio)
system.cpu.icache.overallMissRate::cpu.inst     0.498259                       # miss rate for overall accesses (Ratio)
system.cpu.icache.overallMissRate::total     0.498259                       # miss rate for overall accesses (Ratio)
system.cpu.icache.demandAvgMissLatency::cpu.inst 12991.671641                       # average overall miss latency in ticks ((Tick/Count))
system.cpu.icache.demandAvgMissLatency::total 12991.671641                       # average overall miss latency in ticks ((Tick/Count))
system.cpu.icache.overallAvgMissLatency::cpu.inst 12991.671641                       # average overall miss latency ((Tick/Count))
system.cpu.icache.overallAvgMissLatency::total 12991.671641                       # average overall miss latency ((Tick/Count))
system.cpu.icache.blockedCycles::no_mshrs           14                       # number of cycles access was blocked (Cycle)
system.cpu.icache.blockedCycles::no_targets            0                       # number of cycles access was blocked (Cycle)
system.cpu.icache.blockedCauses::no_mshrs            1                       # number of times access was blocked (Count)
system.cpu.icache.blockedCauses::no_targets            0                       # number of times access was blocked (Count)
system.cpu.icache.avgBlocked::no_mshrs             14                       # average number of cycles each access was blocked ((Cycle/Count))
system.cpu.icache.avgBlocked::no_targets          nan                       # average number of cycles each access was blocked ((Cycle/Count))
system.cpu.icache.demandMshrHits::cpu.inst        54015                       # number of demand (read+write) MSHR hits (Count)
system.cpu.icache.demandMshrHits::total         54015                       # number of demand (read+write) MSHR hits (Count)
system.cpu.icache.overallMshrHits::cpu.inst        54015                       # number of overall MSHR hits (Count)
system.cpu.icache.overallMshrHits::total        54015                       # number of overall MSHR hits (Count)
system.cpu.icache.demandMshrMisses::cpu.inst      2480518                       # number of demand (read+write) MSHR misses (Count)
system.cpu.icache.demandMshrMisses::total      2480518                       # number of demand (read+write) MSHR misses (Count)
system.cpu.icache.overallMshrMisses::cpu.inst      2480518                       # number of overall MSHR misses (Count)
system.cpu.icache.overallMshrMisses::total      2480518                       # number of overall MSHR misses (Count)
system.cpu.icache.demandMshrMissLatency::cpu.inst  30080344000                       # number of demand (read+write) MSHR miss ticks (Tick)
system.cpu.icache.demandMshrMissLatency::total  30080344000                       # number of demand (read+write) MSHR miss ticks (Tick)
system.cpu.icache.overallMshrMissLatency::cpu.inst  30080344000                       # number of overall MSHR miss ticks (Tick)
system.cpu.icache.overallMshrMissLatency::total  30080344000                       # number of overall MSHR miss ticks (Tick)
system.cpu.icache.demandMshrMissRate::cpu.inst     0.487640                       # mshr miss ratio for demand accesses (Ratio)
system.cpu.icache.demandMshrMissRate::total     0.487640                       # mshr miss ratio for demand accesses (Ratio)
system.cpu.icache.overallMshrMissRate::cpu.inst     0.487640                       # mshr miss ratio for overall accesses (Ratio)
system.cpu.icache.overallMshrMissRate::total     0.487640                       # mshr miss ratio for overall accesses (Ratio)
system.cpu.icache.demandAvgMshrMissLatency::cpu.inst 12126.638065                       # average overall mshr miss latency ((Tick/Count))
system.cpu.icache.demandAvgMshrMissLatency::total 12126.638065                       # average overall mshr miss latency ((Tick/Count))
system.cpu.icache.overallAvgMshrMissLatency::cpu.inst 12126.638065                       # average overall mshr miss latency ((Tick/Count))
system.cpu.icache.overallAvgMshrMissLatency::total 12126.638065                       # average overall mshr miss latency ((Tick/Count))
system.cpu.icache.replacements                2480453                       # number of replacements (Count)
system.cpu.icache.ReadReq.hits::cpu.inst      2552248                       # number of ReadReq hits (Count)
system.cpu.icache.ReadReq.hits::total         2552248                       # number of ReadReq hits (Count)
system.cpu.icache.ReadReq.misses::cpu.inst      2534533                       # number of ReadReq misses (Count)
system.cpu.icache.ReadReq.misses::total       2534533                       # number of ReadReq misses (Count)
system.cpu.icache.ReadReq.missLatency::cpu.inst  32927820500                       # number of ReadReq miss ticks (Tick)
system.cpu.icache.ReadReq.missLatency::total  32927820500                       # number of ReadReq miss ticks (Tick)
system.cpu.icache.ReadReq.accesses::cpu.inst      5086781                       # number of ReadReq accesses(hits+misses) (Count)
system.cpu.icache.ReadReq.accesses::total      5086781                       # number of ReadReq accesses(hits+misses) (Count)
system.cpu.icache.ReadReq.missRate::cpu.inst     0.498259                       # miss rate for ReadReq accesses (Ratio)
system.cpu.icache.ReadReq.missRate::total     0.498259                       # miss rate for ReadReq accesses (Ratio)
system.cpu.icache.ReadReq.avgMissLatency::cpu.inst 12991.671641                       # average ReadReq miss latency ((Tick/Count))
system.cpu.icache.ReadReq.avgMissLatency::total 12991.671641                       # average ReadReq miss latency ((Tick/Count))
system.cpu.icache.ReadReq.mshrHits::cpu.inst        54015                       # number of ReadReq MSHR hits (Count)
system.cpu.icache.ReadReq.mshrHits::total        54015                       # number of ReadReq MSHR hits (Count)
system.cpu.icache.ReadReq.mshrMisses::cpu.inst      2480518                       # number of ReadReq MSHR misses (Count)
system.cpu.icache.ReadReq.mshrMisses::total      2480518                       # number of ReadReq MSHR misses (Count)
system.cpu.icache.ReadReq.mshrMissLatency::cpu.inst  30080344000                       # number of ReadReq MSHR miss ticks (Tick)
system.cpu.icache.ReadReq.mshrMissLatency::total  30080344000                       # number of ReadReq MSHR miss ticks (Tick)
system.cpu.icache.ReadReq.mshrMissRate::cpu.inst     0.487640                       # mshr miss rate for ReadReq accesses (Ratio)
system.cpu.icache.ReadReq.mshrMissRate::total     0.487640                       # mshr miss rate for ReadReq accesses (Ratio)
system.cpu.icache.ReadReq.avgMshrMissLatency::cpu.inst 12126.638065                       # average ReadReq mshr miss latency ((Tick/Count))
system.cpu.icache.ReadReq.avgMshrMissLatency::total 12126.638065                       # average ReadReq mshr miss latency ((Tick/Count))
system.cpu.icache.power_state.pwrStateResidencyTicks::UNDEFINED  49789726000                       # Cumulative time (in ticks) in various power states (Tick)
system.cpu.icache.tags.tagsInUse            63.994155                       # Average ticks per tags in use ((Tick/Count))
system.cpu.icache.tags.totalRefs              5032765                       # Total number of references to valid blocks. (Count)
system.cpu.icache.tags.sampledRefs            2480517                       # Sample count of references to valid blocks. (Count)
system.cpu.icache.tags.avgRefs               2.028918                       # Average number of references to valid blocks. ((Count/Count))
system.cpu.icache.tags.warmupTick             9323500                       # The tick when the warmup percentage was hit. (Tick)
system.cpu.icache.tags.occupancies::cpu.inst    63.994155                       # Average occupied blocks per tick, per requestor ((Count/Tick))
system.cpu.icache.tags.avgOccs::cpu.inst     0.999909                       # Average percentage of cache occupancy ((Ratio/Tick))
system.cpu.icache.tags.avgOccs::total        0.999909                       # Average percentage of cache occupancy ((Ratio/Tick))
system.cpu.icache.tags.occupanciesTaskId::1024           64                       # Occupied blocks per task id (Count)
system.cpu.icache.tags.ageTaskId_1024::0           59                       # Occupied blocks per task id, per block age (Count)
system.cpu.icache.tags.ageTaskId_1024::1            5                       # Occupied blocks per task id, per block age (Count)
system.cpu.icache.tags.ratioOccsTaskId::1024            1                       # Ratio of occupied blocks and all blocks, per task id (Ratio)
system.cpu.icache.tags.tagAccesses           12654079                       # Number of tag accesses (Count)
system.cpu.icache.tags.dataAccesses          12654079                       # Number of data accesses (Count)
system.cpu.icache.tags.power_state.pwrStateResidencyTicks::UNDEFINED  49789726000                       # Cumulative time (in ticks) in various power states (Tick)
system.cpu.iew.idleCycles                           0                       # Number of cycles IEW is idle (Cycle)
system.cpu.iew.squashCycles                    355799                       # Number of cycles IEW is squashing (Cycle)
system.cpu.iew.blockCycles                      17335                       # Number of cycles IEW is blocking (Cycle)
system.cpu.iew.unblockCycles                    53846                       # Number of cycles IEW is unblocking (Cycle)
system.cpu.iew.dispatchedInsts               60610958                       # Number of instructions dispatched to IQ (Count)
system.cpu.iew.dispSquashedInsts               362441                       # Number of squashed instructions skipped by dispatch (Count)
system.cpu.iew.dispLoadInsts                  7352235                       # Number of dispatched load instructions (Count)
system.cpu.iew.dispStoreInsts                 4815129                       # Number of dispatched store instructions (Count)
system.cpu.iew.dispNonSpecInsts                   169                       # Number of dispatched non-speculative instructions (Count)
system.cpu.iew.iqFullEvents                         1                       # Number of times the IQ has become full, causing a stall (Count)
system.cpu.iew.lsqFullEvents                    53844                       # Number of times the LSQ has become full, causing a stall (Count)
system.cpu.iew.memOrderViolationEvents             65                       # Number of memory order violations (Count)
system.cpu.iew.predictedTakenIncorrect         146216                       # Number of branches that were predicted taken incorrectly (Count)
system.cpu.iew.predictedNotTakenIncorrect       210261                       # Number of branches that were predicted not taken incorrectly (Count)
system.cpu.iew.branchMispredicts               356477                       # Number of branch mispredicts detected at execute (Count)
system.cpu.iew.instsToCommit                 59661430                       # Cumulative count of insts sent to commit (Count)
system.cpu.iew.writebackCount                59638364                       # Cumulative count of insts written-back (Count)
system.cpu.iew.producerInst                  36896818                       # Number of instructions producing a value (Count)
system.cpu.iew.consumerInst                  52550059                       # Number of instructions consuming a value (Count)
system.cpu.iew.wbRate                        0.598902                       # Insts written-back per cycle ((Count/Cycle))
system.cpu.iew.wbFanout                      0.702127                       # Average fanout of values written-back ((Count/Count))
system.cpu.interrupts.clk_domain.clock           8000                       # Clock period in ticks (Tick)
system.cpu.lsq0.forwLoads                      152475                       # Number of loads that had data forwarded from stores (Count)
system.cpu.lsq0.squashedLoads                  255455                       # Number of loads squashed (Count)
system.cpu.lsq0.ignoredResponses                   18                       # Number of memory responses ignored because the instruction is squashed (Count)
system.cpu.lsq0.memOrderViolation                  65                       # Number of memory ordering violations (Count)
system.cpu.lsq0.squashedStores                  81001                       # Number of stores squashed (Count)
system.cpu.lsq0.rescheduledLoads                   20                       # Number of loads that were rescheduled (Count)
system.cpu.lsq0.blockedByCache                     28                       # Number of times an access to memory failed due to the cache being blocked (Count)
system.cpu.lsq0.loadToUse::samples            7096780                       # Distribution of cycle latency between the first time a load is issued and its completion (Unspecified)
system.cpu.lsq0.loadToUse::mean              4.101717                       # Distribution of cycle latency between the first time a load is issued and its completion (Unspecified)
system.cpu.lsq0.loadToUse::stdev             6.902232                       # Distribution of cycle latency between the first time a load is issued and its completion (Unspecified)
system.cpu.lsq0.loadToUse::0-9                6833474     96.29%     96.29% # Distribution of cycle latency between the first time a load is issued and its completion (Unspecified)
system.cpu.lsq0.loadToUse::10-19                11639      0.16%     96.45% # Distribution of cycle latency between the first time a load is issued and its completion (Unspecified)
system.cpu.lsq0.loadToUse::20-29               231238      3.26%     99.71% # Distribution of cycle latency between the first time a load is issued and its completion (Unspecified)
system.cpu.lsq0.loadToUse::30-39                12183      0.17%     99.88% # Distribution of cycle latency between the first time a load is issued and its completion (Unspecified)
system.cpu.lsq0.loadToUse::40-49                   14      0.00%     99.88% # Distribution of cycle latency between the first time a load is issued and its completion (Unspecified)
system.cpu.lsq0.loadToUse::50-59                   32      0.00%     99.88% # Distribution of cycle latency between the first time a load is issued and its completion (Unspecified)
system.cpu.lsq0.loadToUse::60-69                   91      0.00%     99.89% # Distribution of cycle latency between the first time a load is issued and its completion (Unspecified)
system.cpu.lsq0.loadToUse::70-79                  302      0.00%     99.89% # Distribution of cycle latency between the first time a load is issued and its completion (Unspecified)
system.cpu.lsq0.loadToUse::80-89                   45      0.00%     99.89% # Distribution of cycle latency between the first time a load is issued and its completion (Unspecified)
system.cpu.lsq0.loadToUse::90-99                  113      0.00%     99.89% # Distribution of cycle latency between the first time a load is issued and its completion (Unspecified)
system.cpu.lsq0.loadToUse::100-109                 10      0.00%     99.89% # Distribution of cycle latency between the first time a load is issued and its completion (Unspecified)
system.cpu.lsq0.loadToUse::110-119                 14      0.00%     99.89% # Distribution of cycle latency between the first time a load is issued and its completion (Unspecified)
system.cpu.lsq0.loadToUse::120-129                408      0.01%     99.90% # Distribution of cycle latency between the first time a load is issued and its completion (Unspecified)
system.cpu.lsq0.loadToUse::130-139               4900      0.07%     99.97% # Distribution of cycle latency between the first time a load is issued and its completion (Unspecified)
system.cpu.lsq0.loadToUse::140-149                238      0.00%     99.97% # Distribution of cycle latency between the first time a load is issued and its completion (Unspecified)
system.cpu.lsq0.loadToUse::150-159                 88      0.00%     99.97% # Distribution of cycle latency between the first time a load is issued and its completion (Unspecified)
system.cpu.lsq0.loadToUse::160-169               1303      0.02%     99.99% # Distribution of cycle latency between the first time a load is issued and its completion (Unspecified)
system.cpu.lsq0.loadToUse::170-179                 38      0.00%     99.99% # Distribution of cycle latency between the first time a load is issued and its completion (Unspecified)
system.cpu.lsq0.loadToUse::180-189                 29      0.00%     99.99% # Distribution of cycle latency between the first time a load is issued and its completion (Unspecified)
system.cpu.lsq0.loadToUse::190-199                337      0.00%    100.00% # Distribution of cycle latency between the first time a load is issued and its completion (Unspecified)
system.cpu.lsq0.loadToUse::200-209                 19      0.00%    100.00% # Distribution of cycle latency between the first time a load is issued and its completion (Unspecified)
system.cpu.lsq0.loadToUse::210-219                  8      0.00%    100.00% # Distribution of cycle latency between the first time a load is issued and its completion (Unspecified)
system.cpu.lsq0.loadToUse::220-229                  3      0.00%    100.00% # Distribution of cycle latency between the first time a load is issued and its completion (Unspecified)
system.cpu.lsq0.loadToUse::230-239                  4      0.00%    100.00% # Distribution of cycle latency between the first time a load is issued and its completion (Unspecified)
system.cpu.lsq0.loadToUse::240-249                 10      0.00%    100.00% # Distribution of cycle latency between the first time a load is issued and its completion (Unspecified)
system.cpu.lsq0.loadToUse::250-259                 12      0.00%    100.00% # Distribution of cycle latency between the first time a load is issued and its completion (Unspecified)
system.cpu.lsq0.loadToUse::260-269                 11      0.00%    100.00% # Distribution of cycle latency between the first time a load is issued and its completion (Unspecified)
system.cpu.lsq0.loadToUse::270-279                  7      0.00%    100.00% # Distribution of cycle latency between the first time a load is issued and its completion (Unspecified)
system.cpu.lsq0.loadToUse::280-289                  6      0.00%    100.00% # Distribution of cycle latency between the first time a load is issued and its completion (Unspecified)
system.cpu.lsq0.loadToUse::290-299                 12      0.00%    100.00% # Distribution of cycle latency between the first time a load is issued and its completion (Unspecified)
system.cpu.lsq0.loadToUse::overflows              192      0.00%    100.00% # Distribution of cycle latency between the first time a load is issued and its completion (Unspecified)
system.cpu.lsq0.loadToUse::min_value                2                       # Distribution of cycle latency between the first time a load is issued and its completion (Unspecified)
system.cpu.lsq0.loadToUse::max_value              709                       # Distribution of cycle latency between the first time a load is issued and its completion (Unspecified)
system.cpu.lsq0.loadToUse::total              7096780                       # Distribution of cycle latency between the first time a load is issued and its completion (Unspecified)
system.cpu.mmu.dtb.rdAccesses                 7293159                       # TLB accesses on read requests (Count)
system.cpu.mmu.dtb.wrAccesses                 4775865                       # TLB accesses on write requests (Count)
system.cpu.mmu.dtb.rdMisses                      4608                       # TLB misses on read requests (Count)
system.cpu.mmu.dtb.wrMisses                      4253                       # TLB misses on write requests (Count)
system.cpu.mmu.dtb.walker.power_state.pwrStateResidencyTicks::UNDEFINED  49789726000                       # Cumulative time (in ticks) in various power states (Tick)
system.cpu.mmu.itb.rdAccesses                       0                       # TLB accesses on read requests (Count)
system.cpu.mmu.itb.wrAccesses                 5087058                       # TLB accesses on write requests (Count)
system.cpu.mmu.itb.rdMisses                         0                       # TLB misses on read requests (Count)
system.cpu.mmu.itb.wrMisses                       508                       # TLB misses on write requests (Count)
system.cpu.mmu.itb.walker.power_state.pwrStateResidencyTicks::UNDEFINED  49789726000                       # Cumulative time (in ticks) in various power states (Tick)
system.cpu.power_state.pwrStateResidencyTicks::ON  49789726000                       # Cumulative time (in ticks) in various power states (Tick)
system.cpu.rename.squashCycles                 355799                       # Number of cycles rename is squashing (Cycle)
system.cpu.rename.idleCycles                 52804867                       # Number of cycles rename is idle (Cycle)
system.cpu.rename.blockCycles                 3232725                       # Number of cycles rename is blocking (Cycle)
system.cpu.rename.serializeStallCycles           2399                       # count of cycles rename stalled for serializing inst (Cycle)
system.cpu.rename.runCycles                  29703248                       # Number of cycles rename is running (Cycle)
system.cpu.rename.unblockCycles               3510833                       # Number of cycles rename is unblocking (Cycle)
[...]
system.mem_ctrls.dram.numReads::cpu.inst         4476                       # Number of read requests responded to by this memory (Count)
system.mem_ctrls.dram.numReads::cpu.data         9243                       # Number of read requests responded to by this memory (Count)
system.mem_ctrls.dram.numReads::total           13719                       # Number of read requests responded to by this memory (Count)
system.mem_ctrls.dram.numWrites::writebacks         3413                       # Number of write requests responded to by this memory (Count)
system.mem_ctrls.dram.numWrites::total           3413                       # Number of write requests responded to by this memory (Count)
system.mem_ctrls.dram.bwRead::cpu.inst        5753476                       # Total read bandwidth from this memory ((Byte/Second))
system.mem_ctrls.dram.bwRead::cpu.data       11881005                       # Total read bandwidth from this memory ((Byte/Second))
system.mem_ctrls.dram.bwRead::total          17634481                       # Total read bandwidth from this memory ((Byte/Second))
system.mem_ctrls.dram.bwInstRead::cpu.inst      5753476                       # Instruction read bandwidth from this memory ((Byte/Second))
system.mem_ctrls.dram.bwInstRead::total       5753476                       # Instruction read bandwidth from this memory ((Byte/Second))
system.mem_ctrls.dram.bwWrite::writebacks      4387090                       # Write bandwidth from this memory ((Byte/Second))
system.mem_ctrls.dram.bwWrite::total          4387090                       # Write bandwidth from this memory ((Byte/Second))
system.mem_ctrls.dram.bwTotal::writebacks      4387090                       # Total bandwidth to/from this memory ((Byte/Second))
system.mem_ctrls.dram.bwTotal::cpu.inst       5753476                       # Total bandwidth to/from this memory ((Byte/Second))
system.mem_ctrls.dram.bwTotal::cpu.data      11881005                       # Total bandwidth to/from this memory ((Byte/Second))
system.mem_ctrls.dram.bwTotal::total         22021571                       # Total bandwidth to/from this memory ((Byte/Second))
system.mem_ctrls.dram.readBursts                13377                       # Number of DRAM read bursts (Count)
system.mem_ctrls.dram.writeBursts                3208                       # Number of DRAM write bursts (Count)
system.mem_ctrls.dram.perBankRdBursts::0         1670                       # Per bank write bursts (Count)
system.mem_ctrls.dram.perBankRdBursts::1         1193                       # Per bank write bursts (Count)
system.mem_ctrls.dram.perBankRdBursts::2         1564                       # Per bank write bursts (Count)
system.mem_ctrls.dram.perBankRdBursts::3          808                       # Per bank write bursts (Count)
system.mem_ctrls.dram.perBankRdBursts::4         1223                       # Per bank write bursts (Count)
system.mem_ctrls.dram.perBankRdBursts::5         1005                       # Per bank write bursts (Count)
system.mem_ctrls.dram.perBankRdBursts::6          986                       # Per bank write bursts (Count)
system.mem_ctrls.dram.perBankRdBursts::7          696                       # Per bank write bursts (Count)
system.mem_ctrls.dram.perBankRdBursts::8          710                       # Per bank write bursts (Count)
system.mem_ctrls.dram.perBankRdBursts::9          264                       # Per bank write bursts (Count)
system.mem_ctrls.dram.perBankRdBursts::10          335                       # Per bank write bursts (Count)
system.mem_ctrls.dram.perBankRdBursts::11          236                       # Per bank write bursts (Count)
system.mem_ctrls.dram.perBankRdBursts::12          460                       # Per bank write bursts (Count)
system.mem_ctrls.dram.perBankRdBursts::13          776                       # Per bank write bursts (Count)
system.mem_ctrls.dram.perBankRdBursts::14          861                       # Per bank write bursts (Count)
system.mem_ctrls.dram.perBankRdBursts::15          590                       # Per bank write bursts (Count)
system.mem_ctrls.dram.perBankWrBursts::0          297                       # Per bank write bursts (Count)
system.mem_ctrls.dram.perBankWrBursts::1          389                       # Per bank write bursts (Count)
system.mem_ctrls.dram.perBankWrBursts::2          578                       # Per bank write bursts (Count)
system.mem_ctrls.dram.perBankWrBursts::3          399                       # Per bank write bursts (Count)
system.mem_ctrls.dram.perBankWrBursts::4          329                       # Per bank write bursts (Count)
system.mem_ctrls.dram.perBankWrBursts::5          397                       # Per bank write bursts (Count)
system.mem_ctrls.dram.perBankWrBursts::6          480                       # Per bank write bursts (Count)
system.mem_ctrls.dram.perBankWrBursts::7            0                       # Per bank write bursts (Count)
system.mem_ctrls.dram.perBankWrBursts::8            0                       # Per bank write bursts (Count)
system.mem_ctrls.dram.perBankWrBursts::9            9                       # Per bank write bursts (Count)
system.mem_ctrls.dram.perBankWrBursts::10            0                       # Per bank write bursts (Count)
system.mem_ctrls.dram.perBankWrBursts::11            0                       # Per bank write bursts (Count)
system.mem_ctrls.dram.perBankWrBursts::12           59                       # Per bank write bursts (Count)
system.mem_ctrls.dram.perBankWrBursts::13           61                       # Per bank write bursts (Count)
system.mem_ctrls.dram.perBankWrBursts::14            0                       # Per bank write bursts (Count)
system.mem_ctrls.dram.perBankWrBursts::15          210                       # Per bank write bursts (Count)
system.mem_ctrls.dram.totQLat               143189500                       # Total ticks spent queuing (Tick)
system.mem_ctrls.dram.totBusLat              66885000                       # Total ticks spent in databus transfers (Tick)
system.mem_ctrls.dram.totMemAccLat          394008250                       # Total ticks spent from burst creation until serviced by the DRAM (Tick)
system.mem_ctrls.dram.avgQLat                10704.16                       # Average queueing delay per DRAM burst ((Tick/Count))
system.mem_ctrls.dram.avgBusLat               5000.00                       # Average bus latency per DRAM burst ((Tick/Count))
system.mem_ctrls.dram.avgMemAccLat           29454.16                       # Average memory access latency per DRAM burst ((Tick/Count))
system.mem_ctrls.dram.readRowHits                8750                       # Number of row buffer hits during reads (Count)
system.mem_ctrls.dram.writeRowHits               2856                       # Number of row buffer hits during writes (Count)
system.mem_ctrls.dram.readRowHitRate            65.41                       # Row buffer hit rate for reads (Ratio)
system.mem_ctrls.dram.writeRowHitRate           89.03                       # Row buffer hit rate for writes (Ratio)
system.mem_ctrls.dram.bytesPerActivate::samples         4967                       # Bytes accessed per row activation (Byte)
system.mem_ctrls.dram.bytesPerActivate::mean   213.157238                       # Bytes accessed per row activation (Byte)
system.mem_ctrls.dram.bytesPerActivate::gmean   128.229974                       # Bytes accessed per row activation (Byte)
system.mem_ctrls.dram.bytesPerActivate::stdev   268.439126                       # Bytes accessed per row activation (Byte)
system.mem_ctrls.dram.bytesPerActivate::0-127         2576     51.86%     51.86% # Bytes accessed per row activation (Byte)
system.mem_ctrls.dram.bytesPerActivate::128-255         1159     23.33%     75.20% # Bytes accessed per row activation (Byte)
system.mem_ctrls.dram.bytesPerActivate::256-383          436      8.78%     83.97% # Bytes accessed per row activation (Byte)
system.mem_ctrls.dram.bytesPerActivate::384-511          131      2.64%     86.61% # Bytes accessed per row activation (Byte)
system.mem_ctrls.dram.bytesPerActivate::512-639          123      2.48%     89.09% # Bytes accessed per row activation (Byte)
system.mem_ctrls.dram.bytesPerActivate::640-767          119      2.40%     91.48% # Bytes accessed per row activation (Byte)
system.mem_ctrls.dram.bytesPerActivate::768-895           70      1.41%     92.89% # Bytes accessed per row activation (Byte)
system.mem_ctrls.dram.bytesPerActivate::896-1023           55      1.11%     94.00% # Bytes accessed per row activation (Byte)
system.mem_ctrls.dram.bytesPerActivate::1024-1151          298      6.00%    100.00% # Bytes accessed per row activation (Byte)
system.mem_ctrls.dram.bytesPerActivate::total         4967                       # Bytes accessed per row activation (Byte)
system.mem_ctrls.dram.bytesRead                856128                       # Total bytes read (Byte)
system.mem_ctrls.dram.bytesWritten             205312                       # Total bytes written (Byte)
system.mem_ctrls.dram.avgRdBW               17.194873                       # Average DRAM read bandwidth in MiBytes/s ((Byte/Second))
system.mem_ctrls.dram.avgWrBW                4.123582                       # Average DRAM write bandwidth in MiBytes/s ((Byte/Second))
system.mem_ctrls.dram.peakBW                 12800.00                       # Theoretical peak bandwidth in MiByte/s ((Byte/Second))
system.mem_ctrls.dram.busUtil                    0.17                       # Data bus utilization in percentage (Ratio)
system.mem_ctrls.dram.busUtilRead                0.13                       # Data bus utilization in percentage for reads (Ratio)
system.mem_ctrls.dram.busUtilWrite               0.03                       # Data bus utilization in percentage for writes (Ratio)
system.mem_ctrls.dram.pageHitRate               69.98                       # Row buffer hit rate, read and write combined (Ratio)
system.mem_ctrls.dram.power_state.pwrStateResidencyTicks::UNDEFINED  49789726000                       # Cumulative time (in ticks) in various power states (Tick)
system.mem_ctrls.dram.rank0.actEnergy        22598100                       # Energy for activate commands per rank (pJ) (Joule)
system.mem_ctrls.dram.rank0.preEnergy        11980815                       # Energy for precharge commands per rank (pJ) (Joule)
system.mem_ctrls.dram.rank0.readEnergy       65295300                       # Energy for read commands per rank (pJ) (Joule)
system.mem_ctrls.dram.rank0.writeEnergy      14976180                       # Energy for write commands per rank (pJ) (Joule)
system.mem_ctrls.dram.rank0.refreshEnergy 3930008160.000000                       # Energy for refresh commands per rank (pJ) (Joule)
system.mem_ctrls.dram.rank0.actBackEnergy   3637418520                       # Energy for active background per rank (pJ) (Joule)
system.mem_ctrls.dram.rank0.preBackEnergy  16056165600                       # Energy for precharge background per rank (pJ) (Joule)
system.mem_ctrls.dram.rank0.actPowerDownEnergy            0                       # Energy for active power-down per rank (pJ) (Joule)
system.mem_ctrls.dram.rank0.prePowerDownEnergy            0                       # Energy for precharge power-down per rank (pJ) (Joule)
system.mem_ctrls.dram.rank0.selfRefreshEnergy            0                       # Energy for self refresh per rank (pJ) (Joule)
system.mem_ctrls.dram.rank0.totalEnergy   23738442675                       # Total energy per rank (pJ) (Joule)
system.mem_ctrls.dram.rank0.averagePower   476.773917                       # Core power per rank (mW) (Watt)
system.mem_ctrls.dram.rank0.totalIdleTime            0                       # Total Idle time Per DRAM Rank (Tick)
system.mem_ctrls.dram.rank0.pwrStateTime::IDLE  41706290000                       # Time in different power states (Tick)
system.mem_ctrls.dram.rank0.pwrStateTime::REF   1662440000                       # Time in different power states (Tick)
system.mem_ctrls.dram.rank0.pwrStateTime::SREF            0                       # Time in different power states (Tick)
system.mem_ctrls.dram.rank0.pwrStateTime::PRE_PDN            0                       # Time in different power states (Tick)
system.mem_ctrls.dram.rank0.pwrStateTime::ACT   6420996000                       # Time in different power states (Tick)
system.mem_ctrls.dram.rank0.pwrStateTime::ACT_PDN            0                       # Time in different power states (Tick)
system.mem_ctrls.dram.rank1.actEnergy        12951960                       # Energy for activate commands per rank (pJ) (Joule)
system.mem_ctrls.dram.rank1.preEnergy         6868950                       # Energy for precharge commands per rank (pJ) (Joule)
system.mem_ctrls.dram.rank1.readEnergy       30216480                       # Energy for read commands per rank (pJ) (Joule)
system.mem_ctrls.dram.rank1.writeEnergy       1769580                       # Energy for write commands per rank (pJ) (Joule)
system.mem_ctrls.dram.rank1.refreshEnergy 3930008160.000000                       # Energy for refresh commands per rank (pJ) (Joule)
system.mem_ctrls.dram.rank1.actBackEnergy   2616171750                       # Energy for active background per rank (pJ) (Joule)
system.mem_ctrls.dram.rank1.preBackEnergy  16916162880                       # Energy for precharge background per rank (pJ) (Joule)
system.mem_ctrls.dram.rank1.actPowerDownEnergy            0                       # Energy for active power-down per rank (pJ) (Joule)
system.mem_ctrls.dram.rank1.prePowerDownEnergy            0                       # Energy for precharge power-down per rank (pJ) (Joule)
system.mem_ctrls.dram.rank1.selfRefreshEnergy            0                       # Energy for self refresh per rank (pJ) (Joule)
system.mem_ctrls.dram.rank1.totalEnergy   23514149760                       # Total energy per rank (pJ) (Joule)
system.mem_ctrls.dram.rank1.averagePower   472.269114                       # Core power per rank (mW) (Watt)
system.mem_ctrls.dram.rank1.totalIdleTime            0                       # Total Idle time Per DRAM Rank (Tick)
system.mem_ctrls.dram.rank1.pwrStateTime::IDLE  43951526500                       # Time in different power states (Tick)
system.mem_ctrls.dram.rank1.pwrStateTime::REF   1662440000                       # Time in different power states (Tick)
system.mem_ctrls.dram.rank1.pwrStateTime::SREF            0                       # Time in different power states (Tick)
system.mem_ctrls.dram.rank1.pwrStateTime::PRE_PDN            0                       # Time in different power states (Tick)
system.mem_ctrls.dram.rank1.pwrStateTime::ACT   4175759500                       # Time in different power states (Tick)
system.mem_ctrls.dram.rank1.pwrStateTime::ACT_PDN            0                       # Time in different power states (Tick)
system.mem_ctrls.power_state.pwrStateResidencyTicks::UNDEFINED  49789726000                       # Cumulative time (in ticks) in various power states (Tick)
system.membus.transDist::ReadResp               10463                       # Transaction distribution (Count)
system.membus.transDist::WritebackDirty          3413                       # Transaction distribution (Count)
system.membus.transDist::CleanEvict              9789                       # Transaction distribution (Count)
system.membus.transDist::ReadExReq               3256                       # Transaction distribution (Count)
system.membus.transDist::ReadExResp              3256                       # Transaction distribution (Count)
system.membus.transDist::ReadSharedReq          10464                       # Transaction distribution (Count)
system.membus.pktCount_system.l2cache.mem_side_port::system.mem_ctrls.port        40641                       # Packet count per connected requestor and responder (Count)
system.membus.pktCount_system.l2cache.mem_side_port::total        40641                       # Packet count per connected requestor and responder (Count)
system.membus.pktCount::total                   40641                       # Packet count per connected requestor and responder (Count)
system.membus.pktSize_system.l2cache.mem_side_port::system.mem_ctrls.port      1096448                       # Cumulative packet size per connected requestor and responder (Byte)
system.membus.pktSize_system.l2cache.mem_side_port::total      1096448                       # Cumulative packet size per connected requestor and responder (Byte)
system.membus.pktSize::total                  1096448                       # Cumulative packet size per connected requestor and responder (Byte)
system.membus.snoops                                0                       # Total snoops (Count)
system.membus.snoopTraffic                          0                       # Total snoop traffic (Byte)
system.membus.snoopFanout::samples              13720                       # Request fanout histogram (Count)
system.membus.snoopFanout::mean                     0                       # Request fanout histogram (Count)
system.membus.snoopFanout::stdev                    0                       # Request fanout histogram (Count)
system.membus.snoopFanout::underflows               0      0.00%      0.00% # Request fanout histogram (Count)
system.membus.snoopFanout::0                    13720    100.00%    100.00% # Request fanout histogram (Count)
system.membus.snoopFanout::1                        0      0.00%    100.00% # Request fanout histogram (Count)
system.membus.snoopFanout::overflows                0      0.00%    100.00% # Request fanout histogram (Count)
system.membus.snoopFanout::min_value                0                       # Request fanout histogram (Count)
system.membus.snoopFanout::max_value                0                       # Request fanout histogram (Count)
system.membus.snoopFanout::total                13720                       # Request fanout histogram (Count)
system.membus.power_state.pwrStateResidencyTicks::UNDEFINED  49789726000                       # Cumulative time (in ticks) in various power states (Tick)
system.membus.reqLayer2.occupancy            20287000                       # Layer occupancy (ticks) (Tick)
system.membus.reqLayer2.utilization               0.0                       # Layer utilization (Ratio)
system.membus.respLayer1.occupancy           36654250                       # Layer occupancy (ticks) (Tick)
system.membus.respLayer1.utilization              0.0                       # Layer utilization (Ratio)
system.membus.snoop_filter.totRequests          26922                       # Total number of requests made to the snoop filter. (Count)
system.membus.snoop_filter.hitSingleRequests        13202                       # Number of requests hitting in the snoop filter with a single holder of the requested data. (Count)
system.membus.snoop_filter.hitMultiRequests            0                       # Number of requests hitting in the snoop filter with multiple (>1) holders of the requested data. (Count)
system.membus.snoop_filter.totSnoops                0                       # Total number of snoops made to the snoop filter. (Count)
system.membus.snoop_filter.hitSingleSnoops            0                       # Number of snoops hitting in the snoop filter with a single holder of the requested data. (Count)
system.membus.snoop_filter.hitMultiSnoops            0                       # Number of snoops hitting in the snoop filter with multiple (>1) holders of the requested data. (Count)
system.workload.inst.arm                            0                       # number of arm instructions executed (Count)
system.workload.inst.quiesce                        0                       # number of quiesce instructions executed (Count)

---------- End Simulation Statistics   ----------
